* File: 16x16_10T_M8.pex.netlist.pex
* Created: Tue Oct 17 14:59:12 2017
* Program "Calibre xRC"
* Version "v2011.3_18.12"
* Nominal Temperature: 27C
* Circuit Temperature: 27C
* 
.subckt PM_16X16_10T_M8%GND 83 85 91 93 119 121 127 129 193 195 201 203 229 231
+ 237 239 377 380 395 402 405 408 410 413 417 420 423 431 439 443 446 448 451
+ 454 459 465 467 473 475 501 503 509 511 575 577 578 583 585 611 613 614 619
+ 621 759 762 777 784 787 790 792 795 799 802 805 825 828 830 833 836 841 960
+ 962 964 968 970 996 998 1004 1006 1070 1072 1074 1078 1080 1082 1106 1108 1110
+ 1114 1116 1118 1241 1242 1252 1254 1257 1282 1285 1287 1290 1294 1297 1300
+ 1308 1316 1320 1323 1325 1328 1331 1336 1342 1344 1350 1352 1378 1380 1381
+ 1386 1388 1452 1454 1460 1462 1464 1488 1490 1496 1498 1623 1624 1633 1634
+ 1636 1639 1654 1661 1664 1667 1669 1672 1676 1679 1682 1690 1698 1702 1705
+ 1707 1710 1713 1718 2038 2039 2040 2041 2063 2066 2069 2072 2102 2109 2116
+ 2119 2122 2125 2128 2130 2133 2136 2139 2143 2146 2149 2152 2155 2158 2166
+ 2174 2182 2194 2197 2200 2203 2205 2208 2211 2214 2217 2222 2227 2232 2238
+ 2240 2246 2248 2274 2276 2282 2284 2348 2350 2351 2356 2358 2384 2386 2387
+ 2392 2394 2532 2535 2550 2557 2560 2563 2565 2568 2572 2575 2578 2598 2601
+ 2603 2606 2609 2614 2620 2622 2628 2630 2656 2658 2664 2666 2730 2732 2733
+ 2738 2740 2766 2768 2769 2774 2776 2914 2917 2932 2939 2942 2945 2947 2950
+ 2954 2957 2960 2980 2983 2985 2988 2991 2996 3115 3117 3118 3123 3125 3151
+ 3153 3154 3159 3161 3225 3227 3228 3233 3235 3261 3263 3264 3269 3271 3272
+ 3396 3397 3406 3407 3409 3412 3427 3434 3437 3440 3442 3445 3449 3452 3455
+ 3475 3478 3480 3483 3486 3491 3497 3499 3500 3505 3507 3533 3535 3536 3541
+ 3543 3607 3609 3610 3615 3617 3618 3643 3645 3646 3651 3653 3654 3778 3779
+ 3788 3789 3791 3794 3809 3816 3819 3822 3824 3827 3831 3834 3837 3857 3860
+ 3862 3865 3868 3873 4193 4194 4195 4196 4218 4221 4224 4227 4250 4257 4264
+ 4271 4274 4277 4280 4283 4285 4288 4291 4294 4298 4301 4304 4307 4310 4313
+ 4349 4352 4355 4358 4360 4363 4366 4369 4372 4377 4382 4387 4712 4714 4720
+ 4722 4748 4750 4756 4758 4822 4824 4825 4830 4832 4858 4860 4861 4866 4868
+ 5006 5009 5024 5031 5034 5037 5039 5042 5046 5049 5052 5072 5075 5077 5080
+ 5083 5088 5094 5096 5102 5104 5130 5132 5138 5140 5204 5206 5207 5212 5214
+ 5240 5242 5243 5248 5250 5388 5391 5406 5413 5416 5419 5421 5424 5428 5431
+ 5434 5454 5457 5458 5461 5465 5470 5589 5591 5592 5597 5599 5625 5627 5628
+ 5633 5635 5699 5701 5702 5707 5709 5710 5735 5737 5738 5743 5745 5746 5870
+ 5871 5880 5881 5883 5886 5901 5908 5911 5914 5916 5919 5923 5926 5929 5949
+ 5952 5954 5957 5960 5965 5971 5973 5974 5979 5981 6007 6009 6010 6015 6017
+ 6081 6083 6084 6089 6091 6092 6117 6119 6120 6125 6127 6128 6252 6253 6262
+ 6263 6265 6268 6283 6290 6293 6296 6298 6301 6305 6308 6311 6331 6334 6336
+ 6339 6342 6347 6667 6668 6669 6670 6692 6695 6698 6701 6724 6731 6738 6745
+ 6748 6751 6754 6757 6759 6762 6765 6768 6772 6775 6778 6781 6784 6787 6823
+ 6826 6829 6832 6834 6837 6840 6842 6846 6851 6856 6861 6867 6869 6875 6877
+ 6903 6905 6911 6913 6977 6979 6980 6985 6987 7013 7015 7016 7021 7023 7161
+ 7164 7179 7186 7189 7192 7194 7197 7201 7204 7207 7227 7230 7231 7233 7234
+ 7236 7249 7251 7257 7259 7285 7287 7293 7295 7359 7361 7362 7367 7369 7395
+ 7397 7398 7403 7405 7543 7546 7561 7568 7571 7574 7576 7579 7583 7586 7589
+ 7609 7612 7613 7615 7616 7618 7744 7746 7747 7752 7754 7780 7782 7783 7788
+ 7790 7854 7856 7857 7862 7864 7865 7890 7892 7893 7898 7900 7901 8025 8026
+ 8035 8036 8038 8041 8056 8063 8066 8069 8071 8074 8078 8081 8084 8104 8107
+ 8108 8111 8115 8120 8126 8128 8129 8134 8136 8162 8164 8165 8170 8172 8236
+ 8238 8239 8244 8246 8247 8272 8274 8275 8280 8282 8283 8407 8408 8417 8418
+ 8420 8423 8438 8445 8448 8451 8453 8456 8460 8463 8466 8486 8489 8490 8492
+ 8493 8495 8822 8823 8824 8825 8847 8850 8853 8856 8879 8886 8893 8900 8903
+ 8906 8909 8912 8914 8917 8920 8923 8927 8930 8933 8936 8939 8942 8978 8981
+ 8984 8987 8988 8991 8993 8994 8996 8997 8999 9001 9341 9343 9349 9351 9377
+ 9379 9385 9387 9451 9453 9454 9459 9461 9487 9489 9490 9495 9497 9635 9638
+ 9653 9660 9663 9666 9668 9671 9675 9678 9681 9701 9704 9706 9709 9712 9717
+ 9723 9725 9731 9733 9759 9761 9767 9769 9833 9835 9836 9841 9843 9869 9871
+ 9872 9877 9879 10017 10020 10035 10042 10045 10048 10050 10053 10057 10060
+ 10063 10083 10086 10088 10091 10094 10099 10218 10220 10221 10226 10228 10254
+ 10256 10257 10262 10264 10328 10330 10331 10336 10338 10364 10366 10367 10372
+ 10374 10375 10499 10500 10509 10510 10512 10515 10530 10537 10540 10543 10545
+ 10548 10552 10555 10558 10578 10581 10583 10586 10589 10594 10600 10602 10603
+ 10608 10610 10636 10638 10639 10644 10646 10710 10712 10713 10718 10720 10721
+ 10746 10748 10749 10754 10756 10757 10881 10882 10891 10892 10894 10897 10912
+ 10919 10922 10925 10927 10930 10934 10937 10940 10960 10963 10965 10968 10971
+ 10976 11296 11297 11298 11299 11321 11324 11327 11330 11353 11360 11367 11374
+ 11377 11380 11383 11386 11388 11391 11394 11397 11401 11404 11407 11410 11413
+ 11416 11452 11455 11458 11461 11463 11466 11469 11472 11475 11480 11485 11490
+ 11496 11498 11504 11506 11532 11534 11540 11542 11606 11608 11609 11614 11616
+ 11642 11644 11645 11650 11652 11790 11793 11808 11815 11818 11821 11823 11826
+ 11830 11833 11836 11856 11859 11861 11864 11867 11872 11878 11880 11886 11888
+ 11914 11916 11922 11924 11988 11990 11991 11996 11998 12024 12026 12027 12032
+ 12034 12172 12175 12190 12197 12200 12203 12205 12208 12212 12215 12218 12238
+ 12241 12242 12245 12249 12254 12373 12375 12376 12381 12383 12409 12411 12412
+ 12417 12419 12483 12485 12486 12491 12493 12494 12519 12521 12522 12527 12529
+ 12530 12654 12655 12664 12665 12667 12670 12685 12692 12695 12698 12700 12703
+ 12707 12710 12713 12733 12736 12738 12741 12744 12749 12755 12757 12758 12763
+ 12765 12791 12793 12794 12799 12801 12865 12867 12868 12873 12875 12876 12901
+ 12903 12904 12909 12911 12912 13036 13037 13046 13047 13049 13052 13067 13074
+ 13077 13080 13082 13085 13089 13092 13095 13115 13118 13120 13123 13126 13131
+ 13451 13452 13453 13454 13476 13479 13482 13485 13508 13515 13522 13529 13532
+ 13535 13538 13541 13543 13546 13549 13552 13556 13559 13562 13565 13568 13571
+ 13607 13610 13613 13616 13618 13621 13624 13626 13630 13635 13640 13645 13970
+ 13972 13978 13980 14006 14008 14014 14016 14080 14082 14083 14088 14090 14116
+ 14118 14119 14124 14126 14264 14267 14282 14289 14292 14295 14297 14300 14304
+ 14307 14310 14330 14333 14334 14336 14337 14339 14352 14354 14360 14362 14388
+ 14390 14396 14398 14462 14464 14465 14470 14472 14498 14500 14501 14506 14508
+ 14646 14649 14664 14671 14674 14677 14679 14682 14686 14689 14692 14712 14715
+ 14716 14718 14719 14721 14847 14849 14850 14855 14857 14883 14885 14886 14891
+ 14893 14957 14959 14960 14965 14967 14968 14993 14995 14996 15001 15003 15004
+ 15128 15129 15138 15139 15141 15144 15159 15166 15169 15172 15174 15177 15181
+ 15184 15187 15207 15210 15211 15214 15218 15223 15229 15231 15232 15237 15239
+ 15265 15267 15268 15273 15275 15339 15341 15342 15347 15349 15350 15375 15377
+ 15378 15383 15385 15386 15510 15511 15520 15521 15523 15526 15541 15548 15551
+ 15554 15556 15559 15563 15566 15569 15589 15592 15593 15595 15596 15598 15925
+ 15926 15927 15928 15950 15953 15956 15959 15982 15989 15996 16003 16006 16009
+ 16012 16015 16017 16020 16023 16026 16030 16033 16036 16039 16042 16045 16081
+ 16084 16087 16090 16091 16094 16096 16097 16099 16100 16102 16104 16125 16127
+ 16133 16135 16161 16163 16169 16171 16235 16237 16238 16243 16245 16271 16273
+ 16274 16279 16281 16419 16422 16437 16444 16447 16450 16452 16455 16459 16462
+ 16465 16485 16488 16489 16491 16492 16494 16507 16509 16515 16517 16543 16545
+ 16551 16553 16617 16619 16620 16625 16627 16653 16655 16656 16661 16663 16801
+ 16804 16819 16826 16829 16832 16834 16837 16841 16844 16847 16867 16870 16871
+ 16873 16874 16876 17002 17004 17005 17010 17012 17038 17040 17041 17046 17048
+ 17112 17114 17115 17120 17122 17123 17148 17150 17151 17156 17158 17159 17283
+ 17284 17293 17294 17296 17299 17314 17321 17324 17327 17329 17332 17336 17339
+ 17342 17362 17365 17366 17368 17369 17371 17384 17386 17387 17392 17394 17420
+ 17422 17423 17428 17430 17494 17496 17497 17502 17504 17505 17530 17532 17533
+ 17538 17540 17541 17665 17666 17675 17676 17678 17681 17696 17703 17706 17709
+ 17711 17714 17718 17721 17724 17744 17747 17748 17750 17751 17753 18080 18081
+ 18082 18083 18105 18108 18111 18114 18137 18144 18151 18158 18161 18164 18167
+ 18170 18172 18175 18178 18181 18185 18188 18191 18194 18197 18200 18236 18239
+ 18242 18245 18246 18248 18249 18251 18252 18254 18255 18257 19722 19786 19787
+ 19789 19792 19795 19796 19798 19799 19801 19804 19807 19808 19810 19811 19813
+ 19816 19819 19820 19822 19823 19825 19828 19831 19832 19834 19835 19837 19840
+ 19843 19844 19846 19847 19849 19852 19855 19856 19858 19859 19861 19864 19867
+ 19868 19870 19871 19873 19876 19879 19880 19882 19885 19888 19891 19894 19897
+ 19900 19903 19906 19909 19912 19915 19918 19921 19924 19927 19930 19931 19933
+ 19934 19936 19937 19939 19940 19942 19943 19945 19946 19948 19949 19951 19952
+ 19954 19955 19957 19958 19960 19961 19963 19964 19966 19967 19969 19970 19972
+ 19973 19975 19976 19978 19979 19981 19984 19987 19988 19990 19991 19993 19996
+ 19999 20000 20002 20003 20005 20008 20011 20012 20014 20015 20017 20020 20023
+ 20024 20026 20027 20029 20032 20035 20036 20038 20039 20041 20044 20047 20048
+ 20050 20051 20053 20056 20059 20060 20062 20063 20065 20068 20071 20072 20074
+ 20077 20080 20083 20086 20089 20092 20095 20098 20101 20104 20107 20110 20113
+ 20116 20119 20122 20123 20125 20126 20128 20129 20131 20132 20134 20135 20137
+ 20138 20140 20141 20143 20144 20146 20147 20149 20150 20152 20153 20155 20156
+ 20158 20159 20161 20162 20164 20165 20167 20168 20170 20171 20173 20176 20179
+ 20180 20182 20183 20185 20188 20191 20192 20194 20195 20197 20200 20203 20204
+ 20206 20207 20209 20212 20215 20216 20218 20219 20221 20224 20227 20228 20230
+ 20231 20233 20236 20239 20240 20242 20243 20245 20248 20251 20252 20254 20255
+ 20257 20260 20263 20264 20266 20269 20272 20275 20278 20281 20284 20287 20290
+ 20293 20296 20299 20302 20305 20308 20311 20314 20315 20317 20318 20320 20321
+ 20323 20324 20326 20327 20329 20330 20332 20333 20335 20336 20338 20339 20341
+ 20342 20344 20345 20347 20348 20350 20351 20353 20354 20356 20357 20359 20360
+ 20362 20363 20365 20368 20371 20372 20374 20375 20377 20380 20383 20384 20386
+ 20387 20389 20392 20395 20396 20398 20399 20401 20404 20407 20408 20410 20411
+ 20413 20416 20419 20420 20422 20423 20425 20428 20431 20432 20434 20435 20437
+ 20440 20443 20444 20446 20447 20449 20452 20455 20456 20458 20461 20464 20467
+ 20470 20473 20476 20479 20482 20485 20488 20491 20494 20497 20500 20503 20506
+ 20507 20509 20510 20512 20513 20515 20516 20518 20519 20521 20522 20524 20525
+ 20527 20528 20530 20531 20533 20534 20536 20537 20539 20540 20542 20543 20545
+ 20546 20548 20549 20551 20552 20554 20555 20557 20560 20563 20564 20566 20567
+ 20569 20572 20575 20576 20578 20579 20581 20584 20587 20588 20590 20591 20593
+ 20596 20599 20600 20602 20603 20605 20608 20611 20612 20614 20615 20617 20620
+ 20623 20624 20626 20627 20629 20632 20635 20636 20638 20639 20641 20644 20647
+ 20648 20650 20653 20656 20659 20662 20665 20668 20671 20674 20677 20680 20683
+ 20686 20689 20692 20695 20698 20699 20701 20702 20704 20705 20707 20708 20710
+ 20711 20713 20714 20716 20717 20719 20720 20722 20723 20725 20726 20728 20729
+ 20731 20732 20734 20735 20737 20738 20740 20741 20743 20744 20746 20747 20749
+ 20752 20755 20756 20758 20759 20761 20764 20767 20768 20770 20771 20773 20776
+ 20779 20780 20782 20783 20785 20788 20791 20792 20794 20795 20797 20800 20803
+ 20804 20806 20807 20809 20812 20815 20816 20818 20819 20821 20824 20827 20828
+ 20830 20831 20833 20836 20839 20840 20842 20845 20848 20851 20854 20857 20860
+ 20863 20866 20869 20872 20875 20878 20881 20884 20887 20890 20891 20893 20894
+ 20896 20897 20899 20900 20902 20903 20905 20906 20908 20909 20911 20912 20914
+ 20915 20917 20918 20920 20921 20923 20924 20926 20927 20929 20930 20932 20933
+ 20935 20936 20938 20939 20941 20944 20947 20948 20950 20951 20953 20956 20959
+ 20960 20962 20963 20965 20968 20971 20972 20974 20975 20977 20980 20983 20984
+ 20986 20987 20989 20992 20995 20996 20998 20999 21001 21004 21007 21008 21010
+ 21011 21013 21016 21019 21020 21022 21023 21025 21028 21031 21032 21034 21037
+ 21040 21043 21046 21049 21052 21055 21058 21061 21064 21067 21070 21073 21076
+ 21079 21082 21083 21085 21086 21088 21089 21091 21092 21094 21095 21097 21098
+ 21100 21101 21103 21104 21106 21107 21109 21110 21112 21113 21115 21116 21118
+ 21119 21121 21122 21124 21125 21127 21128 21130 21131 21133 21136 21139 21140
+ 21142 21143 21145 21148 21151 21152 21154 21155 21157 21160 21163 21164 21166
+ 21167 21169 21172 21175 21176 21178 21179 21181 21184 21187 21188 21190 21191
+ 21193 21196 21199 21200 21202 21203 21205 21208 21211 21212 21214 21215 21217
+ 21220 21223 21224 21226 21229 21232 21235 21238 21241 21244 21247 21250 21253
+ 21256 21259 21262 21265 21268 21271 21274 21275 21277 21278 21280 21281 21283
+ 21284 21286 21287 21289 21290 21292 21293 21295 21296 21298 21299 21301 21302
+ 21304 21305 21307 21308 21310 21311 21313 21314 21316 21317 21319 21320 21323
+ 21325 21327 21329 21331 21333 21335 21337 21339 21341 21343 21345 21347 21349
+ 21351 21352 21354 21356 21358 21360 21362 21364 21366 21368 21370 21372 21374
+ 21376 21378 21380 21382 21464 21465 21466 21467 21468 21469 21470 21471 21472
+ 21473 21474 21475 21476 21477 21478 21479 21560 21561 21562 21563 21564 21565
+ 21566 21567 21568 21569 21570 21571 21572 21573 21574 21575 21640 21642 21644
+ 21646 21648 21650 21652 21654 21656 21658 21660 21662 21664 21666 21668 21670
+ 21673 21677 21681 21685 21689 21693 21697 21701 21718 21720 21724 21727 21730
+ 21733 21736 21739 21742 21745 21748 21751 21754 21757 21760 21763 21766 21769
+ 21772 21775 21778 21781 21784 21787 21790 21793 21796 21799 21802 21805 21808
+ 21811 21814 21817 21820 21823 21826 21829 21832 21835 21838 21841 21844 21847
+ 21850 21853 21856 21859 21862 21864 21880 21978 21996 22001 22006 22011 22016
+ 22021 22026 22031 22036 22041 22046 22051 22056 22062 22068 22074 22080 22086
+ 22092 22098 22104 22110 22116 22122 22128 22134 22140 22146 22152 22240 22245
+ 22250 22255 22260 22265 22270 22275 22280 22283 22336 22340 22341 22343 22344
+ 22346 22347 22349 22350 22352 22353 22355 22356 22358 22359 22361 22362 22364
+ 22365 22367 22368 22370 22371 22373 22374 22376 22377 22379 22380 22382 22383
+ 22385 22386 22389 22392 22395 22398 22401 22404 22407 22410 22413 22416 22419
+ 22422 22425 22428 22431 22434 22437 22440 22443 22446 22449 22452 22455 22458
+ 22461 22464 22467 22470 22473 22476 22479 22482 22484 22487 22490 22493 22496
+ 22499 22502 22505 22508 22511 22514 22517 22520 22523 22526 22529 22533 22536
+ 22539 22542 22545 22548 22551 22554 22557 22560 22563 22566 22569 22572 22575
+ 22578 22581 22584 22587 22590 22593 22596 22599 22602 22605 22608 22611 22614
+ 22617 22620 22623 22626 22629 22632 22635 22638 22641 22644 22647 22650 22652
+ 22655 22658 22661 22664 22667 22670 22673 22676 22679 22682 22685 22688 22691
+ 22694 22697 22705 22711 22719 22725 22733 22818 22942 22945 22948 22951 22954
+ 22957 22960 22963 22966 22969 22972 22975 22978 22981 22984 22987 22991 22997
+ 23003 23009 23015 23021 23027 23033 23039 23045 23051 23057 23063 23069 23075
+ 23081 23101 23104 23107 23110 23113 23116 23119 23122 23125 23128 23131 23134
+ 23137 23139 23142 23145 23147 23149 23152 23155 23158 23161 23164 23167 23170
+ 23173 23175 23178 23181 23183 23184 23186 23187 23189 23190 23192 23193 23195
+ 23197 23200 23203 23206 23209 23211 23214 23217 23219 23220 23222 23223 23225
+ 23226 23228 23229 23231 23232 23234 23235 23237 23238 23240 23241 23243 23245
+ 23250 23255 23260 23265 23270 23275 23280 23285 23290 23295 23300 23305 23310
+ 23315 23325 23330 23335 23340 23345 23350 23355 23360 23365 23370 23375 23405
+ 23410 23415 23420 23425 23430 23435 23485 23509 23515 23539 23545 23569 23575
+ 23599 23605 23629 23635 23659 23665 23689 23695 23719 23725 23749 23754 23757
c33426 23754 0 0.056681f
c33427 23749 0 7.34922e-19
c33428 23725 0 0.517823f
c33429 23719 0 7.34949e-19
c33430 23695 0 0.115611f
c33431 23689 0 7.34949e-19
c33432 23665 0 0.115611f
c33433 23659 0 7.34949e-19
c33434 23635 0 0.115611f
c33435 23629 0 7.34949e-19
c33436 23605 0 0.115611f
c33437 23599 0 7.34949e-19
c33438 23575 0 0.115611f
c33439 23569 0 7.34949e-19
c33440 23545 0 0.115611f
c33441 23539 0 7.34949e-19
c33442 23515 0 0.115611f
c33443 23509 0 7.34922e-19
c33444 23485 0 0.459131f
c33445 23435 0 0.00703372f
c33446 23430 0 0.00703372f
c33447 23425 0 0.00703372f
c33448 23420 0 0.00703372f
c33449 23415 0 0.00703372f
c33450 23410 0 0.00703372f
c33451 23405 0 0.00703372f
c33452 23375 0 0.00153114f
c33453 23370 0 0.00153114f
c33454 23365 0 0.00153114f
c33455 23360 0 0.00153114f
c33456 23355 0 0.00153114f
c33457 23350 0 0.00153114f
c33458 23345 0 0.00153114f
c33459 23340 0 0.00153114f
c33460 23335 0 0.00153114f
c33461 23330 0 0.00153114f
c33462 23325 0 0.00153114f
c33463 23315 0 0.00703372f
c33464 23310 0 0.00703372f
c33465 23305 0 0.00703372f
c33466 23300 0 0.00703372f
c33467 23295 0 0.00703372f
c33468 23290 0 0.00703372f
c33469 23285 0 0.00703372f
c33470 23280 0 0.00703372f
c33471 23275 0 0.00703372f
c33472 23270 0 0.00703372f
c33473 23265 0 0.00703372f
c33474 23260 0 0.00703372f
c33475 23255 0 0.00703372f
c33476 23250 0 0.00703372f
c33477 23245 0 0.00703372f
c33478 23243 0 0.00703372f
c33479 23241 0 0.0196904f
c33480 23240 0 0.00703372f
c33481 23238 0 0.0196587f
c33482 23237 0 0.00703372f
c33483 23235 0 0.0196904f
c33484 23234 0 0.00703372f
c33485 23232 0 0.0196587f
c33486 23231 0 0.00703372f
c33487 23229 0 0.0196904f
c33488 23228 0 0.00703372f
c33489 23226 0 0.0196587f
c33490 23225 0 0.00703372f
c33491 23223 0 0.0196904f
c33492 23222 0 0.00703372f
c33493 23220 0 0.0196587f
c33494 23219 0 0.00703372f
c33495 23217 0 0.0196904f
c33496 23214 0 0.0196587f
c33497 23211 0 0.0196904f
c33498 23209 0 0.0196587f
c33499 23206 0 0.0196904f
c33500 23203 0 0.0196587f
c33501 23200 0 0.0196904f
c33502 23197 0 0.0196587f
c33503 23195 0 0.00153114f
c33504 23193 0 0.00978001f
c33505 23192 0 0.00153114f
c33506 23190 0 0.00978001f
c33507 23189 0 0.00153114f
c33508 23187 0 0.00978001f
c33509 23186 0 0.00153114f
c33510 23184 0 0.00978002f
c33511 23183 0 0.00153114f
c33512 23181 0 0.00978002f
c33513 23178 0 0.00978002f
c33514 23175 0 0.00978002f
c33515 23173 0 0.00978001f
c33516 23170 0 0.00978001f
c33517 23167 0 0.00978001f
c33518 23164 0 0.00978001f
c33519 23161 0 0.00978001f
c33520 23158 0 0.00978002f
c33521 23155 0 0.00978002f
c33522 23152 0 0.00978002f
c33523 23149 0 0.00978002f
c33524 23147 0 0.00703372f
c33525 23145 0 0.0196904f
c33526 23142 0 0.0196587f
c33527 23139 0 0.0196904f
c33528 23137 0 0.0196587f
c33529 23134 0 0.0196904f
c33530 23131 0 0.0196587f
c33531 23128 0 0.0196904f
c33532 23125 0 0.0196587f
c33533 23122 0 0.0196904f
c33534 23119 0 0.0196587f
c33535 23116 0 0.0196904f
c33536 23113 0 0.0196587f
c33537 23110 0 0.0196904f
c33538 23107 0 0.0196587f
c33539 23104 0 0.0196904f
c33540 23101 0 0.0196587f
c33541 23081 0 0.0098444f
c33542 23075 0 0.0098444f
c33543 23069 0 0.0098444f
c33544 23063 0 0.0098444f
c33545 23057 0 0.0098444f
c33546 23051 0 0.0098444f
c33547 23045 0 0.0098444f
c33548 23039 0 0.0098444f
c33549 23033 0 0.0098444f
c33550 23027 0 0.0098444f
c33551 23021 0 0.0098444f
c33552 23015 0 0.0098444f
c33553 23009 0 0.0098444f
c33554 23003 0 0.0098444f
c33555 22997 0 0.0098444f
c33556 22991 0 0.0098444f
c33557 22987 0 0.00328345f
c33558 22984 0 0.00599013f
c33559 22981 0 0.00278288f
c33560 22978 0 0.00599013f
c33561 22975 0 0.00278288f
c33562 22972 0 0.00599013f
c33563 22969 0 0.00278288f
c33564 22966 0 0.00599013f
c33565 22963 0 0.00278288f
c33566 22960 0 0.00599013f
c33567 22957 0 0.00278288f
c33568 22954 0 0.00599013f
c33569 22951 0 0.00278288f
c33570 22948 0 0.00599013f
c33571 22945 0 0.00278288f
c33572 22942 0 0.00646496f
c33573 22818 0 0.011276f
c33574 22733 0 0.0098444f
c33575 22725 0 0.0098444f
c33576 22719 0 0.0098444f
c33577 22711 0 0.0098444f
c33578 22705 0 0.0098444f
c33579 22697 0 0.0102222f
c33580 22694 0 0.00992484f
c33581 22691 0 0.00992484f
c33582 22688 0 0.00992484f
c33583 22685 0 0.00992484f
c33584 22682 0 0.00992484f
c33585 22679 0 0.00992484f
c33586 22676 0 0.00992484f
c33587 22673 0 0.00992484f
c33588 22670 0 0.00992484f
c33589 22667 0 0.00992484f
c33590 22664 0 0.00992484f
c33591 22661 0 0.00992484f
c33592 22658 0 0.00992484f
c33593 22655 0 0.00992484f
c33594 22652 0 0.0102222f
c33595 22650 0 0.00681886f
c33596 22647 0 0.00681886f
c33597 22644 0 0.00681886f
c33598 22641 0 0.00681886f
c33599 22638 0 0.00681886f
c33600 22635 0 0.00681886f
c33601 22632 0 0.00681886f
c33602 22629 0 0.00681886f
c33603 22626 0 0.00681886f
c33604 22623 0 0.00681886f
c33605 22620 0 0.00681886f
c33606 22617 0 0.00681886f
c33607 22614 0 0.00681886f
c33608 22611 0 0.00681886f
c33609 22608 0 0.00681886f
c33610 22605 0 0.00681886f
c33611 22602 0 0.00477641f
c33612 22599 0 0.00477641f
c33613 22596 0 0.00477641f
c33614 22593 0 0.00477641f
c33615 22590 0 0.00477641f
c33616 22587 0 0.00477641f
c33617 22584 0 0.00477641f
c33618 22581 0 0.00477641f
c33619 22578 0 0.00477641f
c33620 22575 0 0.00477641f
c33621 22572 0 0.00477641f
c33622 22569 0 0.00477641f
c33623 22566 0 0.00477641f
c33624 22563 0 0.00477641f
c33625 22560 0 0.00477641f
c33626 22557 0 0.00477641f
c33627 22554 0 0.00315085f
c33628 22551 0 0.00317401f
c33629 22548 0 0.00317401f
c33630 22545 0 0.00317401f
c33631 22542 0 0.00317401f
c33632 22539 0 0.00317401f
c33633 22536 0 0.00317401f
c33634 22533 0 0.00317401f
c33635 22529 0 0.00315085f
c33636 22526 0 0.00317401f
c33637 22523 0 0.00317401f
c33638 22520 0 0.00317401f
c33639 22517 0 0.00317401f
c33640 22514 0 0.00317401f
c33641 22511 0 0.00317401f
c33642 22508 0 0.00317401f
c33643 22505 0 0.00317401f
c33644 22502 0 0.00317401f
c33645 22499 0 0.00317401f
c33646 22496 0 0.00317401f
c33647 22493 0 0.00317401f
c33648 22490 0 0.00317401f
c33649 22487 0 0.00317401f
c33650 22484 0 0.00315085f
c33651 22482 0 0.00477641f
c33652 22479 0 0.00477641f
c33653 22476 0 0.00477641f
c33654 22473 0 0.00477641f
c33655 22470 0 0.00477641f
c33656 22467 0 0.00477641f
c33657 22464 0 0.00477641f
c33658 22461 0 0.00477641f
c33659 22458 0 0.00477641f
c33660 22455 0 0.00477641f
c33661 22452 0 0.00477641f
c33662 22449 0 0.00477641f
c33663 22446 0 0.00477641f
c33664 22443 0 0.00477641f
c33665 22440 0 0.00477641f
c33666 22437 0 0.00477641f
c33667 22434 0 0.00681886f
c33668 22431 0 0.00681886f
c33669 22428 0 0.00681886f
c33670 22425 0 0.00681886f
c33671 22422 0 0.00681886f
c33672 22419 0 0.00681886f
c33673 22416 0 0.00681886f
c33674 22413 0 0.00681886f
c33675 22410 0 0.00681886f
c33676 22407 0 0.00681886f
c33677 22404 0 0.00681886f
c33678 22401 0 0.00681886f
c33679 22398 0 0.00681886f
c33680 22395 0 0.00681886f
c33681 22392 0 0.00681886f
c33682 22389 0 0.00681886f
c33683 22386 0 0.00314411f
c33684 22385 0 0.00645645f
c33685 22383 0 0.00316727f
c33686 22382 0 0.00595589f
c33687 22380 0 0.00316727f
c33688 22379 0 0.00595589f
c33689 22377 0 0.00316727f
c33690 22376 0 0.00595589f
c33691 22374 0 0.00316727f
c33692 22373 0 0.00595589f
c33693 22371 0 0.00316727f
c33694 22370 0 0.00595589f
c33695 22368 0 0.00316727f
c33696 22367 0 0.00595589f
c33697 22365 0 0.00316727f
c33698 22364 0 0.00595589f
c33699 22362 0 0.00316727f
c33700 22361 0 0.00595589f
c33701 22359 0 0.00316727f
c33702 22358 0 0.00595589f
c33703 22356 0 0.00316727f
c33704 22355 0 0.00595589f
c33705 22353 0 0.00316727f
c33706 22352 0 0.00595589f
c33707 22350 0 0.00316727f
c33708 22349 0 0.00595589f
c33709 22347 0 0.00316727f
c33710 22346 0 0.00595589f
c33711 22344 0 0.00316727f
c33712 22343 0 0.00595589f
c33713 22341 0 0.00314411f
c33714 22340 0 0.00645645f
c33715 22336 0 0.485338f
c33716 22283 0 0.294886f
c33717 22280 0 7.34922e-19
c33718 22275 0 7.34949e-19
c33719 22270 0 7.34949e-19
c33720 22265 0 7.34949e-19
c33721 22260 0 7.34949e-19
c33722 22255 0 7.34949e-19
c33723 22250 0 7.34949e-19
c33724 22245 0 7.34949e-19
c33725 22240 0 7.34922e-19
c33726 21881 0 0.005425f
c33727 21880 0 0.0676731f
c33728 21879 0 0.005425f
c33729 21878 0 0.005425f
c33730 21877 0 0.005425f
c33731 21876 0 0.005425f
c33732 21875 0 0.005425f
c33733 21874 0 0.005425f
c33734 21873 0 0.005425f
c33735 21872 0 0.005425f
c33736 21871 0 0.005425f
c33737 21870 0 0.005425f
c33738 21869 0 0.005425f
c33739 21868 0 0.005425f
c33740 21867 0 0.005425f
c33741 21866 0 0.005425f
c33742 21865 0 0.005425f
c33743 21864 0 0.0676731f
c33744 21862 0 0.00412444f
c33745 21859 0 0.00452975f
c33746 21856 0 0.00452975f
c33747 21853 0 0.00452975f
c33748 21850 0 0.00452975f
c33749 21847 0 0.00452975f
c33750 21844 0 0.00452975f
c33751 21841 0 0.00452975f
c33752 21838 0 0.00452975f
c33753 21835 0 0.00452975f
c33754 21832 0 0.00452975f
c33755 21829 0 0.00452975f
c33756 21826 0 0.00452975f
c33757 21823 0 0.00452975f
c33758 21820 0 0.00452975f
c33759 21817 0 0.00412444f
c33760 21814 0 0.00419555f
c33761 21811 0 0.00419555f
c33762 21808 0 0.00419555f
c33763 21805 0 0.00419555f
c33764 21802 0 0.00419555f
c33765 21799 0 0.00419555f
c33766 21796 0 0.00419555f
c33767 21793 0 0.00419555f
c33768 21790 0 0.00419555f
c33769 21787 0 0.00419555f
c33770 21784 0 0.00419555f
c33771 21781 0 0.00419555f
c33772 21778 0 0.00419555f
c33773 21775 0 0.00419555f
c33774 21772 0 0.00419555f
c33775 21769 0 0.00419555f
c33776 21766 0 0.00412444f
c33777 21763 0 0.00452975f
c33778 21760 0 0.00452975f
c33779 21757 0 0.00452975f
c33780 21754 0 0.00452975f
c33781 21751 0 0.00452975f
c33782 21748 0 0.00452975f
c33783 21745 0 0.00452975f
c33784 21742 0 0.00452975f
c33785 21739 0 0.00452975f
c33786 21736 0 0.00452975f
c33787 21733 0 0.00452975f
c33788 21730 0 0.00452975f
c33789 21727 0 0.00452975f
c33790 21724 0 0.00452975f
c33791 21720 0 0.00412444f
c33792 21719 0 0.005425f
c33793 21718 0 0.056681f
c33794 21717 0 0.005425f
c33795 21716 0 0.005425f
c33796 21715 0 0.005425f
c33797 21714 0 0.005425f
c33798 21713 0 0.005425f
c33799 21712 0 0.005425f
c33800 21711 0 0.005425f
c33801 21710 0 0.005425f
c33802 21709 0 0.005425f
c33803 21708 0 0.005425f
c33804 21707 0 0.005425f
c33805 21706 0 0.005425f
c33806 21705 0 0.005425f
c33807 21704 0 0.005425f
c33808 21703 0 0.005425f
c33809 21701 0 0.0485613f
c33810 21699 0 0.0585934f
c33811 21697 0 0.0485613f
c33812 21695 0 0.0585934f
c33813 21693 0 0.0485613f
c33814 21691 0 0.0585934f
c33815 21689 0 0.0485613f
c33816 21687 0 0.0585934f
c33817 21685 0 0.0485613f
c33818 21683 0 0.0585934f
c33819 21681 0 0.0485613f
c33820 21679 0 0.0585934f
c33821 21677 0 0.0485613f
c33822 21675 0 0.0585934f
c33823 21673 0 0.0485613f
c33824 21670 0 0.0128053f
c33825 21668 0 0.0134095f
c33826 21666 0 0.0134095f
c33827 21664 0 0.0134095f
c33828 21662 0 0.0134095f
c33829 21660 0 0.0134095f
c33830 21658 0 0.0134095f
c33831 21656 0 0.0134095f
c33832 21654 0 0.0134095f
c33833 21652 0 0.0134095f
c33834 21650 0 0.0134095f
c33835 21648 0 0.0134095f
c33836 21646 0 0.0134095f
c33837 21644 0 0.0134095f
c33838 21642 0 0.0134095f
c33839 21640 0 0.0128053f
c33840 21575 0 0.00838179f
c33841 21574 0 0.0108428f
c33842 21573 0 0.0108428f
c33843 21572 0 0.0108428f
c33844 21571 0 0.0108428f
c33845 21570 0 0.0108428f
c33846 21569 0 0.0108428f
c33847 21568 0 0.0108428f
c33848 21567 0 0.0108428f
c33849 21566 0 0.0108428f
c33850 21565 0 0.0108428f
c33851 21564 0 0.0108428f
c33852 21563 0 0.0108428f
c33853 21562 0 0.0108428f
c33854 21561 0 0.0108428f
c33855 21560 0 0.00838198f
c33856 21479 0 0.00857984f
c33857 21478 0 0.0111267f
c33858 21477 0 0.0111267f
c33859 21476 0 0.0111267f
c33860 21475 0 0.0111267f
c33861 21474 0 0.0111267f
c33862 21473 0 0.0111267f
c33863 21472 0 0.0111267f
c33864 21471 0 0.0111267f
c33865 21470 0 0.0111267f
c33866 21469 0 0.0111267f
c33867 21468 0 0.0111267f
c33868 21467 0 0.0111267f
c33869 21466 0 0.0111267f
c33870 21465 0 0.0111267f
c33871 21464 0 0.00857989f
c33872 21382 0 0.00657908f
c33873 21380 0 0.00844709f
c33874 21378 0 0.00844709f
c33875 21376 0 0.00844709f
c33876 21374 0 0.00844709f
c33877 21372 0 0.00844709f
c33878 21370 0 0.00844709f
c33879 21368 0 0.00844709f
c33880 21366 0 0.00844709f
c33881 21364 0 0.00844709f
c33882 21362 0 0.00844709f
c33883 21360 0 0.00844709f
c33884 21358 0 0.00844709f
c33885 21356 0 0.00844709f
c33886 21354 0 0.00844709f
c33887 21352 0 0.00657908f
c33888 21351 0 0.02682f
c33889 21349 0 0.0366093f
c33890 21347 0 0.02682f
c33891 21345 0 0.0366093f
c33892 21343 0 0.02682f
c33893 21341 0 0.0366093f
c33894 21339 0 0.02682f
c33895 21337 0 0.0366093f
c33896 21335 0 0.02682f
c33897 21333 0 0.0366093f
c33898 21331 0 0.02682f
c33899 21329 0 0.0366093f
c33900 21327 0 0.02682f
c33901 21325 0 0.0366093f
c33902 21323 0 0.02682f
c33903 19722 0 0.00838209f
c33904 18257 0 0.00153114f
c33905 18255 0 0.00978001f
c33906 18254 0 0.00153114f
c33907 18252 0 0.00978001f
c33908 18251 0 0.00153114f
c33909 18249 0 0.00978001f
c33910 18248 0 0.00153114f
c33911 18246 0 0.00978002f
c33912 18245 0 0.00328345f
c33913 18242 0 0.00599013f
c33914 18239 0 0.00278288f
c33915 18236 0 0.00599013f
c33916 18200 0 0.00477641f
c33917 18197 0 0.00477641f
c33918 18194 0 0.00477641f
c33919 18191 0 0.00477641f
c33920 18188 0 0.00315085f
c33921 18185 0 0.00317401f
c33922 18181 0 0.00315085f
c33923 18178 0 0.00317401f
c33924 18175 0 0.00317401f
c33925 18172 0 0.00317401f
c33926 18170 0 0.00477641f
c33927 18167 0 0.00477641f
c33928 18164 0 0.00477641f
c33929 18161 0 0.00477641f
c33930 18114 0 0.00419555f
c33931 18111 0 0.00419555f
c33932 18108 0 0.00419555f
c33933 18105 0 0.00419555f
c33934 18083 0 0.00857785f
c33935 18082 0 0.0111267f
c33936 18081 0 0.0111267f