* File: 8x16_10T_M8.pex.netlist
* Created: Tue Nov  7 19:01:39 2017
* Program "Calibre xRC"
* Version "v2011.3_18.12"
* 
.include "8x16_10T_M8.pex.netlist.pex"
.subckt 8x16_10T_M8  GND RBL<0> RBL<1> RBL<2> RBL<3> RBL<4> RBL<5> RBL<6> RBL<7>
+ RBL<8> RBL<9> RBL<10> RBL<11> RBL<12> RBL<13> RBL<14> RBL<15> RWL<0> RWL<1>
+ RWL<2> RWL<3> RWL<4> RWL<5> RWL<6> RWL<7> RWLB<0> RWLB<1> RWLB<2> RWLB<3>
+ RWLB<4> RWLB<5> RWLB<6> RWLB<7> VDD WBL<0> WBL<1> WBL<2> WBL<3> WBL<4> WBL<5>
+ WBL<6> WBL<7> WBL<8> WBL<9> WBL<10> WBL<11> WBL<12> WBL<13> WBL<14> WBL<15>
+ WBLB<0> WBLB<1> WBLB<2> WBLB<3> WBLB<4> WBLB<5> WBLB<6> WBLB<7> WBLB<8>
+ WBLB<9> WBLB<10> WBLB<11> WBLB<12> WBLB<13> WBLB<14> WBLB<15> WWLB<0> WWLB<1>
+ WWLB<2> WWLB<3> WWLB<4> WWLB<5> WWLB<6> WWLB<7>
* 
* WBLB<15>	WBLB<15>
* RBL<15>	RBL<15>
* RBL<14>	RBL<14>
* WBLB<14>	WBLB<14>
* WBLB<13>	WBLB<13>
* RBL<13>	RBL<13>
* RBL<12>	RBL<12>
* WBLB<12>	WBLB<12>
* WBLB<11>	WBLB<11>
* RBL<11>	RBL<11>
* RBL<10>	RBL<10>
* WBLB<10>	WBLB<10>
* WBLB<9>	WBLB<9>
* RBL<9>	RBL<9>
* RBL<8>	RBL<8>
* WBLB<8>	WBLB<8>
* WBLB<7>	WBLB<7>
* RBL<7>	RBL<7>
* RBL<6>	RBL<6>
* WBLB<6>	WBLB<6>
* WBLB<5>	WBLB<5>
* RBL<5>	RBL<5>
* RBL<4>	RBL<4>
* WBLB<4>	WBLB<4>
* WBLB<3>	WBLB<3>
* RBL<3>	RBL<3>
* RBL<2>	RBL<2>
* WBLB<2>	WBLB<2>
* WBLB<1>	WBLB<1>
* RBL<1>	RBL<1>
* RBL<0>	RBL<0>
* WBLB<0>	WBLB<0>
* WWLB<0>	WWLB<0>
* RWLB<0>	RWLB<0>
* RWLB<1>	RWLB<1>
* WWLB<1>	WWLB<1>
* WWLB<2>	WWLB<2>
* RWLB<2>	RWLB<2>
* RWLB<3>	RWLB<3>
* WWLB<3>	WWLB<3>
* WWLB<4>	WWLB<4>
* RWLB<4>	RWLB<4>
* RWLB<5>	RWLB<5>
* WWLB<5>	WWLB<5>
* WWLB<6>	WWLB<6>
* RWLB<6>	RWLB<6>
* RWLB<7>	RWLB<7>
* VDD	VDD
* WWLB<7>	WWLB<7>
* WBL<8>	WBL<8>
* WBL<9>	WBL<9>
* WBL<10>	WBL<10>
* WBL<11>	WBL<11>
* WBL<12>	WBL<12>
* WBL<13>	WBL<13>
* WBL<14>	WBL<14>
* WBL<15>	WBL<15>
* RWL<0>	RWL<0>
* RWL<1>	RWL<1>
* RWL<2>	RWL<2>
* RWL<3>	RWL<3>
* WBL<0>	WBL<0>
* WBL<1>	WBL<1>
* WBL<2>	WBL<2>
* WBL<3>	WBL<3>
* WBL<4>	WBL<4>
* WBL<5>	WBL<5>
* WBL<6>	WBL<6>
* WBL<7>	WBL<7>
* RWL<4>	RWL<4>
* RWL<5>	RWL<5>
* RWL<6>	RWL<6>
* RWL<7>	RWL<7>
* GND	GND
mXI900/MM8 N_XI900/NET08_XI900/MM8_d N_RWL<7>_XI900/MM8_g N_RBL<8>_XI900/MM8_s
+ N_GND_XI908/MM10_b NCH L=6e-08 W=1.2e-07 M=1
mXI900/MM7 N_XI900/NET08_XI900/MM7_d N_XI900/QB_XI900/MM7_g N_GND_XI900/MM7_s
+ N_GND_XI908/MM10_b NCH L=6e-08 W=1.6e-07 M=1
mXI900/MM10 N_WBL<8>_XI900/MM10_d N_WWLB<7>_XI900/MM10_g N_XI900/Q_XI900/MM10_s
+ N_GND_XI908/MM10_b NCH L=6e-08 W=1.8e-07 M=1
mXI900/MM11 N_WBLB<8>_XI900/MM11_d N_WWLB<7>_XI900/MM11_g
+ N_XI900/QB_XI900/MM11_s N_GND_XI908/MM10_b NCH L=6e-08 W=1.8e-07 M=1
mXI900/MM1 N_XI900/Q_XI900/MM1_d N_XI900/QB_XI900/MM1_g N_GND_XI900/MM1_s
+ N_GND_XI908/MM10_b NCH L=6e-08 W=1.2e-07 M=1
mXI900/MM0 N_XI900/QB_XI900/MM0_d N_XI900/Q_XI900/MM0_g N_GND_XI900/MM0_s
+ N_GND_XI908/MM10_b NCH L=6e-08 W=1.2e-07 M=1
mXI900/MM9 N_XI900/NET08_XI900/MM9_d N_RWLB<7>_XI900/MM9_g N_RBL<8>_XI900/MM9_s
+ N_VDD_XI900/MM6_b PCH L=6e-08 W=1.2e-07 M=1
mXI900/MM6 N_XI900/NET08_XI900/MM6_d N_XI900/QB_XI900/MM6_g N_VDD_XI900/MM6_s
+ N_VDD_XI900/MM6_b PCH L=6e-08 W=4.8e-07 M=1
mXI900/MM5 N_XI900/Q_XI900/MM5_d N_XI900/QB_XI900/MM5_g N_VDD_XI900/MM5_s
+ N_VDD_XI900/MM6_b PCH L=6e-08 W=2.4e-07 M=1
mXI900/MM4 N_XI900/QB_XI900/MM4_d N_XI900/Q_XI900/MM4_g N_VDD_XI900/MM4_s
+ N_VDD_XI900/MM6_b PCH L=6e-08 W=2.4e-07 M=1
mXI875/MM8 N_XI875/NET08_XI875/MM8_d N_RWL<5>_XI875/MM8_g N_RBL<1>_XI875/MM8_s
+ N_GND_XI908/MM10_b NCH L=6e-08 W=1.2e-07 M=1
mXI875/MM7 N_XI875/NET08_XI875/MM7_d N_XI875/QB_XI875/MM7_g N_GND_XI875/MM7_s
+ N_GND_XI908/MM10_b NCH L=6e-08 W=1.6e-07 M=1
mXI875/MM10 N_WBL<1>_XI875/MM10_d N_WWLB<5>_XI875/MM10_g N_XI875/Q_XI875/MM10_s
+ N_GND_XI908/MM10_b NCH L=6e-08 W=1.8e-07 M=1
mXI875/MM11 N_WBLB<1>_XI875/MM11_d N_WWLB<5>_XI875/MM11_g
+ N_XI875/QB_XI875/MM11_s N_GND_XI908/MM10_b NCH L=6e-08 W=1.8e-07 M=1
mXI875/MM1 N_XI875/Q_XI875/MM1_d N_XI875/QB_XI875/MM1_g N_GND_XI875/MM1_s
+ N_GND_XI908/MM10_b NCH L=6e-08 W=1.2e-07 M=1
mXI875/MM0 N_XI875/QB_XI875/MM0_d N_XI875/Q_XI875/MM0_g N_GND_XI875/MM0_s
+ N_GND_XI908/MM10_b NCH L=6e-08 W=1.2e-07 M=1
mXI875/MM9 N_XI875/NET08_XI875/MM9_d N_RWLB<5>_XI875/MM9_g N_RBL<1>_XI875/MM9_s
+ N_VDD_XI908/MM6_b PCH L=6e-08 W=1.2e-07 M=1
mXI875/MM6 N_XI875/NET08_XI875/MM6_d N_XI875/QB_XI875/MM6_g N_VDD_XI875/MM6_s
+ N_VDD_XI908/MM6_b PCH L=6e-08 W=4.8e-07 M=1
mXI875/MM5 N_XI875/Q_XI875/MM5_d N_XI875/QB_XI875/MM5_g N_VDD_XI875/MM5_s
+ N_VDD_XI908/MM6_b PCH L=6e-08 W=2.4e-07 M=1
mXI875/MM4 N_XI875/QB_XI875/MM4_d N_XI875/Q_XI875/MM4_g N_VDD_XI875/MM4_s
+ N_VDD_XI908/MM6_b PCH L=6e-08 W=2.4e-07 M=1
mXI874/MM8 N_XI874/NET08_XI874/MM8_d N_RWL<5>_XI874/MM8_g N_RBL<2>_XI874/MM8_s
+ N_GND_XI908/MM10_b NCH L=6e-08 W=1.2e-07 M=1
mXI874/MM7 N_XI874/NET08_XI874/MM7_d N_XI874/QB_XI874/MM7_g N_GND_XI874/MM7_s
+ N_GND_XI908/MM10_b NCH L=6e-08 W=1.6e-07 M=1
mXI874/MM10 N_WBL<2>_XI874/MM10_d N_WWLB<5>_XI874/MM10_g N_XI874/Q_XI874/MM10_s
+ N_GND_XI908/MM10_b NCH L=6e-08 W=1.8e-07 M=1
mXI874/MM11 N_WBLB<2>_XI874/MM11_d N_WWLB<5>_XI874/MM11_g
+ N_XI874/QB_XI874/MM11_s N_GND_XI908/MM10_b NCH L=6e-08 W=1.8e-07 M=1
mXI874/MM1 N_XI874/Q_XI874/MM1_d N_XI874/QB_XI874/MM1_g N_GND_XI874/MM1_s
+ N_GND_XI908/MM10_b NCH L=6e-08 W=1.2e-07 M=1
mXI874/MM0 N_XI874/QB_XI874/MM0_d N_XI874/Q_XI874/MM0_g N_GND_XI874/MM0_s
+ N_GND_XI908/MM10_b NCH L=6e-08 W=1.2e-07 M=1
mXI874/MM9 N_XI874/NET08_XI874/MM9_d N_RWLB<5>_XI874/MM9_g N_RBL<2>_XI874/MM9_s
+ N_VDD_XI906/MM6_b PCH L=6e-08 W=1.2e-07 M=1
mXI874/MM6 N_XI874/NET08_XI874/MM6_d N_XI874/QB_XI874/MM6_g N_VDD_XI874/MM6_s
+ N_VDD_XI906/MM6_b PCH L=6e-08 W=4.8e-07 M=1
mXI874/MM5 N_XI874/Q_XI874/MM5_d N_XI874/QB_XI874/MM5_g N_VDD_XI874/MM5_s
+ N_VDD_XI906/MM6_b PCH L=6e-08 W=2.4e-07 M=1
mXI874/MM4 N_XI874/QB_XI874/MM4_d N_XI874/Q_XI874/MM4_g N_VDD_XI874/MM4_s
+ N_VDD_XI906/MM6_b PCH L=6e-08 W=2.4e-07 M=1
mXI873/MM8 N_XI873/NET08_XI873/MM8_d N_RWL<5>_XI873/MM8_g N_RBL<3>_XI873/MM8_s
+ N_GND_XI908/MM10_b NCH L=6e-08 W=1.2e-07 M=1
mXI873/MM7 N_XI873/NET08_XI873/MM7_d N_XI873/QB_XI873/MM7_g N_GND_XI873/MM7_s
+ N_GND_XI908/MM10_b NCH L=6e-08 W=1.6e-07 M=1
mXI873/MM10 N_WBL<3>_XI873/MM10_d N_WWLB<5>_XI873/MM10_g N_XI873/Q_XI873/MM10_s
+ N_GND_XI908/MM10_b NCH L=6e-08 W=1.8e-07 M=1
mXI873/MM11 N_WBLB<3>_XI873/MM11_d N_WWLB<5>_XI873/MM11_g
+ N_XI873/QB_XI873/MM11_s N_GND_XI908/MM10_b NCH L=6e-08 W=1.8e-07 M=1
mXI873/MM1 N_XI873/Q_XI873/MM1_d N_XI873/QB_XI873/MM1_g N_GND_XI873/MM1_s
+ N_GND_XI908/MM10_b NCH L=6e-08 W=1.2e-07 M=1
mXI873/MM0 N_XI873/QB_XI873/MM0_d N_XI873/Q_XI873/MM0_g N_GND_XI873/MM0_s
+ N_GND_XI908/MM10_b NCH L=6e-08 W=1.2e-07 M=1
mXI873/MM9 N_XI873/NET08_XI873/MM9_d N_RWLB<5>_XI873/MM9_g N_RBL<3>_XI873/MM9_s
+ N_VDD_XI906/MM6_b PCH L=6e-08 W=1.2e-07 M=1
mXI873/MM6 N_XI873/NET08_XI873/MM6_d N_XI873/QB_XI873/MM6_g N_VDD_XI873/MM6_s
+ N_VDD_XI906/MM6_b PCH L=6e-08 W=4.8e-07 M=1
mXI873/MM5 N_XI873/Q_XI873/MM5_d N_XI873/QB_XI873/MM5_g N_VDD_XI873/MM5_s
+ N_VDD_XI906/MM6_b PCH L=6e-08 W=2.4e-07 M=1
mXI873/MM4 N_XI873/QB_XI873/MM4_d N_XI873/Q_XI873/MM4_g N_VDD_XI873/MM4_s
+ N_VDD_XI906/MM6_b PCH L=6e-08 W=2.4e-07 M=1
mXI872/MM8 N_XI872/NET08_XI872/MM8_d N_RWL<5>_XI872/MM8_g N_RBL<4>_XI872/MM8_s
+ N_GND_XI908/MM10_b NCH L=6e-08 W=1.2e-07 M=1
mXI872/MM7 N_XI872/NET08_XI872/MM7_d N_XI872/QB_XI872/MM7_g N_GND_XI872/MM7_s
+ N_GND_XI908/MM10_b NCH L=6e-08 W=1.6e-07 M=1
mXI872/MM10 N_WBL<4>_XI872/MM10_d N_WWLB<5>_XI872/MM10_g N_XI872/Q_XI872/MM10_s
+ N_GND_XI908/MM10_b NCH L=6e-08 W=1.8e-07 M=1
mXI872/MM11 N_WBLB<4>_XI872/MM11_d N_WWLB<5>_XI872/MM11_g
+ N_XI872/QB_XI872/MM11_s N_GND_XI908/MM10_b NCH L=6e-08 W=1.8e-07 M=1
mXI872/MM1 N_XI872/Q_XI872/MM1_d N_XI872/QB_XI872/MM1_g N_GND_XI872/MM1_s
+ N_GND_XI908/MM10_b NCH L=6e-08 W=1.2e-07 M=1
mXI872/MM0 N_XI872/QB_XI872/MM0_d N_XI872/Q_XI872/MM0_g N_GND_XI872/MM0_s
+ N_GND_XI908/MM10_b NCH L=6e-08 W=1.2e-07 M=1
mXI872/MM9 N_XI872/NET08_XI872/MM9_d N_RWLB<5>_XI872/MM9_g N_RBL<4>_XI872/MM9_s
+ N_VDD_XI904/MM6_b PCH L=6e-08 W=1.2e-07 M=1
mXI872/MM6 N_XI872/NET08_XI872/MM6_d N_XI872/QB_XI872/MM6_g N_VDD_XI872/MM6_s
+ N_VDD_XI904/MM6_b PCH L=6e-08 W=4.8e-07 M=1
mXI872/MM5 N_XI872/Q_XI872/MM5_d N_XI872/QB_XI872/MM5_g N_VDD_XI872/MM5_s
+ N_VDD_XI904/MM6_b PCH L=6e-08 W=2.4e-07 M=1
mXI872/MM4 N_XI872/QB_XI872/MM4_d N_XI872/Q_XI872/MM4_g N_VDD_XI872/MM4_s
+ N_VDD_XI904/MM6_b PCH L=6e-08 W=2.4e-07 M=1
mXI909/MM8 N_XI909/NET08_XI909/MM8_d N_RWL<7>_XI909/MM8_g N_RBL<15>_XI909/MM8_s
+ N_GND_XI908/MM10_b NCH L=6e-08 W=1.2e-07 M=1
mXI909/MM7 N_XI909/NET08_XI909/MM7_d N_XI909/QB_XI909/MM7_g N_GND_XI909/MM7_s
+ N_GND_XI908/MM10_b NCH L=6e-08 W=1.6e-07 M=1
mXI909/MM10 N_WBL<15>_XI909/MM10_d N_WWLB<7>_XI909/MM10_g N_XI909/Q_XI909/MM10_s
+ N_GND_XI908/MM10_b NCH L=6e-08 W=1.8e-07 M=1
mXI909/MM11 N_WBLB<15>_XI909/MM11_d N_WWLB<7>_XI909/MM11_g
+ N_XI909/QB_XI909/MM11_s N_GND_XI908/MM10_b NCH L=6e-08 W=1.8e-07 M=1
mXI909/MM1 N_XI909/Q_XI909/MM1_d N_XI909/QB_XI909/MM1_g N_GND_XI909/MM1_s
+ N_GND_XI908/MM10_b NCH L=6e-08 W=1.2e-07 M=1
mXI909/MM0 N_XI909/QB_XI909/MM0_d N_XI909/Q_XI909/MM0_g N_GND_XI909/MM0_s
+ N_GND_XI908/MM10_b NCH L=6e-08 W=1.2e-07 M=1
mXI909/MM9 N_XI909/NET08_XI909/MM9_d N_RWLB<7>_XI909/MM9_g N_RBL<15>_XI909/MM9_s
+ N_VDD_XI894/MM6_b PCH L=6e-08 W=1.2e-07 M=1
mXI909/MM6 N_XI909/NET08_XI909/MM6_d N_XI909/QB_XI909/MM6_g N_VDD_XI909/MM6_s
+ N_VDD_XI894/MM6_b PCH L=6e-08 W=4.8e-07 M=1
mXI909/MM5 N_XI909/Q_XI909/MM5_d N_XI909/QB_XI909/MM5_g N_VDD_XI909/MM5_s
+ N_VDD_XI894/MM6_b PCH L=6e-08 W=2.4e-07 M=1
mXI909/MM4 N_XI909/QB_XI909/MM4_d N_XI909/Q_XI909/MM4_g N_VDD_XI909/MM4_s
+ N_VDD_XI894/MM6_b PCH L=6e-08 W=2.4e-07 M=1
mXI908/MM8 N_XI908/NET08_XI908/MM8_d N_RWL<7>_XI908/MM8_g N_RBL<0>_XI908/MM8_s
+ N_GND_XI908/MM10_b NCH L=6e-08 W=1.2e-07 M=1
mXI908/MM7 N_XI908/NET08_XI908/MM7_d N_XI908/QB_XI908/MM7_g N_GND_XI908/MM7_s
+ N_GND_XI908/MM10_b NCH L=6e-08 W=1.6e-07 M=1
mXI908/MM10 N_WBL<0>_XI908/MM10_d N_WWLB<7>_XI908/MM10_g N_XI908/Q_XI908/MM10_s
+ N_GND_XI908/MM10_b NCH L=6e-08 W=1.8e-07 M=1
mXI908/MM11 N_WBLB<0>_XI908/MM11_d N_WWLB<7>_XI908/MM11_g
+ N_XI908/QB_XI908/MM11_s N_GND_XI908/MM10_b NCH L=6e-08 W=1.8e-07 M=1
mXI908/MM1 N_XI908/Q_XI908/MM1_d N_XI908/QB_XI908/MM1_g N_GND_XI908/MM1_s
+ N_GND_XI908/MM10_b NCH L=6e-08 W=1.2e-07 M=1
mXI908/MM0 N_XI908/QB_XI908/MM0_d N_XI908/Q_XI908/MM0_g N_GND_XI908/MM0_s
+ N_GND_XI908/MM10_b NCH L=6e-08 W=1.2e-07 M=1
mXI908/MM9 N_XI908/NET08_XI908/MM9_d N_RWLB<7>_XI908/MM9_g N_RBL<0>_XI908/MM9_s
+ N_VDD_XI908/MM6_b PCH L=6e-08 W=1.2e-07 M=1
mXI908/MM6 N_XI908/NET08_XI908/MM6_d N_XI908/QB_XI908/MM6_g N_VDD_XI908/MM6_s
+ N_VDD_XI908/MM6_b PCH L=6e-08 W=4.8e-07 M=1
mXI908/MM5 N_XI908/Q_XI908/MM5_d N_XI908/QB_XI908/MM5_g N_VDD_XI908/MM5_s
+ N_VDD_XI908/MM6_b PCH L=6e-08 W=2.4e-07 M=1
mXI908/MM4 N_XI908/QB_XI908/MM4_d N_XI908/Q_XI908/MM4_g N_VDD_XI908/MM4_s
+ N_VDD_XI908/MM6_b PCH L=6e-08 W=2.4e-07 M=1
mXI907/MM8 N_XI907/NET08_XI907/MM8_d N_RWL<7>_XI907/MM8_g N_RBL<1>_XI907/MM8_s
+ N_GND_XI908/MM10_b NCH L=6e-08 W=1.2e-07 M=1
mXI907/MM7 N_XI907/NET08_XI907/MM7_d N_XI907/QB_XI907/MM7_g N_GND_XI907/MM7_s
+ N_GND_XI908/MM10_b NCH L=6e-08 W=1.6e-07 M=1
mXI907/MM10 N_WBL<1>_XI907/MM10_d N_WWLB<7>_XI907/MM10_g N_XI907/Q_XI907/MM10_s
+ N_GND_XI908/MM10_b NCH L=6e-08 W=1.8e-07 M=1
mXI907/MM11 N_WBLB<1>_XI907/MM11_d N_WWLB<7>_XI907/MM11_g
+ N_XI907/QB_XI907/MM11_s N_GND_XI908/MM10_b NCH L=6e-08 W=1.8e-07 M=1
mXI907/MM1 N_XI907/Q_XI907/MM1_d N_XI907/QB_XI907/MM1_g N_GND_XI907/MM1_s
+ N_GND_XI908/MM10_b NCH L=6e-08 W=1.2e-07 M=1
mXI907/MM0 N_XI907/QB_XI907/MM0_d N_XI907/Q_XI907/MM0_g N_GND_XI907/MM0_s
+ N_GND_XI908/MM10_b NCH L=6e-08 W=1.2e-07 M=1
mXI907/MM9 N_XI907/NET08_XI907/MM9_d N_RWLB<7>_XI907/MM9_g N_RBL<1>_XI907/MM9_s
+ N_VDD_XI908/MM6_b PCH L=6e-08 W=1.2e-07 M=1
mXI907/MM6 N_XI907/NET08_XI907/MM6_d N_XI907/QB_XI907/MM6_g N_VDD_XI907/MM6_s
+ N_VDD_XI908/MM6_b PCH L=6e-08 W=4.8e-07 M=1
mXI907/MM5 N_XI907/Q_XI907/MM5_d N_XI907/QB_XI907/MM5_g N_VDD_XI907/MM5_s
+ N_VDD_XI908/MM6_b PCH L=6e-08 W=2.4e-07 M=1
mXI907/MM4 N_XI907/QB_XI907/MM4_d N_XI907/Q_XI907/MM4_g N_VDD_XI907/MM4_s
+ N_VDD_XI908/MM6_b PCH L=6e-08 W=2.4e-07 M=1
mXI906/MM8 N_XI906/NET08_XI906/MM8_d N_RWL<7>_XI906/MM8_g N_RBL<2>_XI906/MM8_s
+ N_GND_XI908/MM10_b NCH L=6e-08 W=1.2e-07 M=1
mXI906/MM7 N_XI906/NET08_XI906/MM7_d N_XI906/QB_XI906/MM7_g N_GND_XI906/MM7_s
+ N_GND_XI908/MM10_b NCH L=6e-08 W=1.6e-07 M=1
mXI906/MM10 N_WBL<2>_XI906/MM10_d N_WWLB<7>_XI906/MM10_g N_XI906/Q_XI906/MM10_s
+ N_GND_XI908/MM10_b NCH L=6e-08 W=1.8e-07 M=1
mXI906/MM11 N_WBLB<2>_XI906/MM11_d N_WWLB<7>_XI906/MM11_g
+ N_XI906/QB_XI906/MM11_s N_GND_XI908/MM10_b NCH L=6e-08 W=1.8e-07 M=1
mXI906/MM1 N_XI906/Q_XI906/MM1_d N_XI906/QB_XI906/MM1_g N_GND_XI906/MM1_s
+ N_GND_XI908/MM10_b NCH L=6e-08 W=1.2e-07 M=1
mXI906/MM0 N_XI906/QB_XI906/MM0_d N_XI906/Q_XI906/MM0_g N_GND_XI906/MM0_s
+ N_GND_XI908/MM10_b NCH L=6e-08 W=1.2e-07 M=1
mXI906/MM9 N_XI906/NET08_XI906/MM9_d N_RWLB<7>_XI906/MM9_g N_RBL<2>_XI906/MM9_s
+ N_VDD_XI906/MM6_b PCH L=6e-08 W=1.2e-07 M=1
mXI906/MM6 N_XI906/NET08_XI906/MM6_d N_XI906/QB_XI906/MM6_g N_VDD_XI906/MM6_s
+ N_VDD_XI906/MM6_b PCH L=6e-08 W=4.8e-07 M=1
mXI906/MM5 N_XI906/Q_XI906/MM5_d N_XI906/QB_XI906/MM5_g N_VDD_XI906/MM5_s
+ N_VDD_XI906/MM6_b PCH L=6e-08 W=2.4e-07 M=1
mXI906/MM4 N_XI906/QB_XI906/MM4_d N_XI906/Q_XI906/MM4_g N_VDD_XI906/MM4_s
+ N_VDD_XI906/MM6_b PCH L=6e-08 W=2.4e-07 M=1
mXI895/MM8 N_XI895/NET08_XI895/MM8_d N_RWL<7>_XI895/MM8_g N_RBL<13>_XI895/MM8_s
+ N_GND_XI908/MM10_b NCH L=6e-08 W=1.2e-07 M=1
mXI895/MM7 N_XI895/NET08_XI895/MM7_d N_XI895/QB_XI895/MM7_g N_GND_XI895/MM7_s
+ N_GND_XI908/MM10_b NCH L=6e-08 W=1.6e-07 M=1
mXI895/MM10 N_WBL<13>_XI895/MM10_d N_WWLB<7>_XI895/MM10_g N_XI895/Q_XI895/MM10_s
+ N_GND_XI908/MM10_b NCH L=6e-08 W=1.8e-07 M=1
mXI895/MM11 N_WBLB<13>_XI895/MM11_d N_WWLB<7>_XI895/MM11_g
+ N_XI895/QB_XI895/MM11_s N_GND_XI908/MM10_b NCH L=6e-08 W=1.8e-07 M=1
mXI895/MM1 N_XI895/Q_XI895/MM1_d N_XI895/QB_XI895/MM1_g N_GND_XI895/MM1_s
+ N_GND_XI908/MM10_b NCH L=6e-08 W=1.2e-07 M=1
mXI895/MM0 N_XI895/QB_XI895/MM0_d N_XI895/Q_XI895/MM0_g N_GND_XI895/MM0_s
+ N_GND_XI908/MM10_b NCH L=6e-08 W=1.2e-07 M=1
mXI895/MM9 N_XI895/NET08_XI895/MM9_d N_RWLB<7>_XI895/MM9_g N_RBL<13>_XI895/MM9_s
+ N_VDD_XI896/MM6_b PCH L=6e-08 W=1.2e-07 M=1
mXI895/MM6 N_XI895/NET08_XI895/MM6_d N_XI895/QB_XI895/MM6_g N_VDD_XI895/MM6_s
+ N_VDD_XI896/MM6_b PCH L=6e-08 W=4.8e-07 M=1
mXI895/MM5 N_XI895/Q_XI895/MM5_d N_XI895/QB_XI895/MM5_g N_VDD_XI895/MM5_s
+ N_VDD_XI896/MM6_b PCH L=6e-08 W=2.4e-07 M=1
mXI895/MM4 N_XI895/QB_XI895/MM4_d N_XI895/Q_XI895/MM4_g N_VDD_XI895/MM4_s
+ N_VDD_XI896/MM6_b PCH L=6e-08 W=2.4e-07 M=1
mXI894/MM8 N_XI894/NET08_XI894/MM8_d N_RWL<7>_XI894/MM8_g N_RBL<14>_XI894/MM8_s
+ N_GND_XI908/MM10_b NCH L=6e-08 W=1.2e-07 M=1
mXI894/MM7 N_XI894/NET08_XI894/MM7_d N_XI894/QB_XI894/MM7_g N_GND_XI894/MM7_s
+ N_GND_XI908/MM10_b NCH L=6e-08 W=1.6e-07 M=1
mXI894/MM10 N_WBL<14>_XI894/MM10_d N_WWLB<7>_XI894/MM10_g N_XI894/Q_XI894/MM10_s
+ N_GND_XI908/MM10_b NCH L=6e-08 W=1.8e-07 M=1
mXI894/MM11 N_WBLB<14>_XI894/MM11_d N_WWLB<7>_XI894/MM11_g
+ N_XI894/QB_XI894/MM11_s N_GND_XI908/MM10_b NCH L=6e-08 W=1.8e-07 M=1
mXI894/MM1 N_XI894/Q_XI894/MM1_d N_XI894/QB_XI894/MM1_g N_GND_XI894/MM1_s
+ N_GND_XI908/MM10_b NCH L=6e-08 W=1.2e-07 M=1
mXI894/MM0 N_XI894/QB_XI894/MM0_d N_XI894/Q_XI894/MM0_g N_GND_XI894/MM0_s
+ N_GND_XI908/MM10_b NCH L=6e-08 W=1.2e-07 M=1
mXI894/MM9 N_XI894/NET08_XI894/MM9_d N_RWLB<7>_XI894/MM9_g N_RBL<14>_XI894/MM9_s
+ N_VDD_XI894/MM6_b PCH L=6e-08 W=1.2e-07 M=1
mXI894/MM6 N_XI894/NET08_XI894/MM6_d N_XI894/QB_XI894/MM6_g N_VDD_XI894/MM6_s
+ N_VDD_XI894/MM6_b PCH L=6e-08 W=4.8e-07 M=1
mXI894/MM5 N_XI894/Q_XI894/MM5_d N_XI894/QB_XI894/MM5_g N_VDD_XI894/MM5_s
+ N_VDD_XI894/MM6_b PCH L=6e-08 W=2.4e-07 M=1
mXI894/MM4 N_XI894/QB_XI894/MM4_d N_XI894/Q_XI894/MM4_g N_VDD_XI894/MM4_s
+ N_VDD_XI894/MM6_b PCH L=6e-08 W=2.4e-07 M=1
mXI871/MM8 N_XI871/NET08_XI871/MM8_d N_RWL<5>_XI871/MM8_g N_RBL<5>_XI871/MM8_s
+ N_GND_XI908/MM10_b NCH L=6e-08 W=1.2e-07 M=1
mXI871/MM7 N_XI871/NET08_XI871/MM7_d N_XI871/QB_XI871/MM7_g N_GND_XI871/MM7_s
+ N_GND_XI908/MM10_b NCH L=6e-08 W=1.6e-07 M=1
mXI871/MM10 N_WBL<5>_XI871/MM10_d N_WWLB<5>_XI871/MM10_g N_XI871/Q_XI871/MM10_s
+ N_GND_XI908/MM10_b NCH L=6e-08 W=1.8e-07 M=1
mXI871/MM11 N_WBLB<5>_XI871/MM11_d N_WWLB<5>_XI871/MM11_g
+ N_XI871/QB_XI871/MM11_s N_GND_XI908/MM10_b NCH L=6e-08 W=1.8e-07 M=1
mXI871/MM1 N_XI871/Q_XI871/MM1_d N_XI871/QB_XI871/MM1_g N_GND_XI871/MM1_s
+ N_GND_XI908/MM10_b NCH L=6e-08 W=1.2e-07 M=1
mXI871/MM0 N_XI871/QB_XI871/MM0_d N_XI871/Q_XI871/MM0_g N_GND_XI871/MM0_s
+ N_GND_XI908/MM10_b NCH L=6e-08 W=1.2e-07 M=1
mXI871/MM9 N_XI871/NET08_XI871/MM9_d N_RWLB<5>_XI871/MM9_g N_RBL<5>_XI871/MM9_s
+ N_VDD_XI904/MM6_b PCH L=6e-08 W=1.2e-07 M=1
mXI871/MM6 N_XI871/NET08_XI871/MM6_d N_XI871/QB_XI871/MM6_g N_VDD_XI871/MM6_s
+ N_VDD_XI904/MM6_b PCH L=6e-08 W=4.8e-07 M=1
mXI871/MM5 N_XI871/Q_XI871/MM5_d N_XI871/QB_XI871/MM5_g N_VDD_XI871/MM5_s
+ N_VDD_XI904/MM6_b PCH L=6e-08 W=2.4e-07 M=1
mXI871/MM4 N_XI871/QB_XI871/MM4_d N_XI871/Q_XI871/MM4_g N_VDD_XI871/MM4_s
+ N_VDD_XI904/MM6_b PCH L=6e-08 W=2.4e-07 M=1
mXI870/MM8 N_XI870/NET08_XI870/MM8_d N_RWL<5>_XI870/MM8_g N_RBL<6>_XI870/MM8_s
+ N_GND_XI908/MM10_b NCH L=6e-08 W=1.2e-07 M=1
mXI870/MM7 N_XI870/NET08_XI870/MM7_d N_XI870/QB_XI870/MM7_g N_GND_XI870/MM7_s
+ N_GND_XI908/MM10_b NCH L=6e-08 W=1.6e-07 M=1
mXI870/MM10 N_WBL<6>_XI870/MM10_d N_WWLB<5>_XI870/MM10_g N_XI870/Q_XI870/MM10_s
+ N_GND_XI908/MM10_b NCH L=6e-08 W=1.8e-07 M=1
mXI870/MM11 N_WBLB<6>_XI870/MM11_d N_WWLB<5>_XI870/MM11_g
+ N_XI870/QB_XI870/MM11_s N_GND_XI908/MM10_b NCH L=6e-08 W=1.8e-07 M=1
mXI870/MM1 N_XI870/Q_XI870/MM1_d N_XI870/QB_XI870/MM1_g N_GND_XI870/MM1_s
+ N_GND_XI908/MM10_b NCH L=6e-08 W=1.2e-07 M=1
mXI870/MM0 N_XI870/QB_XI870/MM0_d N_XI870/Q_XI870/MM0_g N_GND_XI870/MM0_s
+ N_GND_XI908/MM10_b NCH L=6e-08 W=1.2e-07 M=1
mXI870/MM9 N_XI870/NET08_XI870/MM9_d N_RWLB<5>_XI870/MM9_g N_RBL<6>_XI870/MM9_s
+ N_VDD_XI902/MM6_b PCH L=6e-08 W=1.2e-07 M=1
mXI870/MM6 N_XI870/NET08_XI870/MM6_d N_XI870/QB_XI870/MM6_g N_VDD_XI870/MM6_s
+ N_VDD_XI902/MM6_b PCH L=6e-08 W=4.8e-07 M=1
mXI870/MM5 N_XI870/Q_XI870/MM5_d N_XI870/QB_XI870/MM5_g N_VDD_XI870/MM5_s
+ N_VDD_XI902/MM6_b PCH L=6e-08 W=2.4e-07 M=1
mXI870/MM4 N_XI870/QB_XI870/MM4_d N_XI870/Q_XI870/MM4_g N_VDD_XI870/MM4_s
+ N_VDD_XI902/MM6_b PCH L=6e-08 W=2.4e-07 M=1
mXI869/MM8 N_XI869/NET08_XI869/MM8_d N_RWL<5>_XI869/MM8_g N_RBL<7>_XI869/MM8_s
+ N_GND_XI908/MM10_b NCH L=6e-08 W=1.2e-07 M=1
mXI869/MM7 N_XI869/NET08_XI869/MM7_d N_XI869/QB_XI869/MM7_g N_GND_XI869/MM7_s
+ N_GND_XI908/MM10_b NCH L=6e-08 W=1.6e-07 M=1
mXI869/MM10 N_WBL<7>_XI869/MM10_d N_WWLB<5>_XI869/MM10_g N_XI869/Q_XI869/MM10_s
+ N_GND_XI908/MM10_b NCH L=6e-08 W=1.8e-07 M=1
mXI869/MM11 N_WBLB<7>_XI869/MM11_d N_WWLB<5>_XI869/MM11_g
+ N_XI869/QB_XI869/MM11_s N_GND_XI908/MM10_b NCH L=6e-08 W=1.8e-07 M=1
mXI869/MM1 N_XI869/Q_XI869/MM1_d N_XI869/QB_XI869/MM1_g N_GND_XI869/MM1_s
+ N_GND_XI908/MM10_b NCH L=6e-08 W=1.2e-07 M=1
mXI869/MM0 N_XI869/QB_XI869/MM0_d N_XI869/Q_XI869/MM0_g N_GND_XI869/MM0_s
+ N_GND_XI908/MM10_b NCH L=6e-08 W=1.2e-07 M=1
mXI869/MM9 N_XI869/NET08_XI869/MM9_d N_RWLB<5>_XI869/MM9_g N_RBL<7>_XI869/MM9_s
+ N_VDD_XI902/MM6_b PCH L=6e-08 W=1.2e-07 M=1
mXI869/MM6 N_XI869/NET08_XI869/MM6_d N_XI869/QB_XI869/MM6_g N_VDD_XI869/MM6_s
+ N_VDD_XI902/MM6_b PCH L=6e-08 W=4.8e-07 M=1
mXI869/MM5 N_XI869/Q_XI869/MM5_d N_XI869/QB_XI869/MM5_g N_VDD_XI869/MM5_s
+ N_VDD_XI902/MM6_b PCH L=6e-08 W=2.4e-07 M=1
mXI869/MM4 N_XI869/QB_XI869/MM4_d N_XI869/Q_XI869/MM4_g N_VDD_XI869/MM4_s
+ N_VDD_XI902/MM6_b PCH L=6e-08 W=2.4e-07 M=1
mXI868/MM8 N_XI868/NET08_XI868/MM8_d N_RWL<5>_XI868/MM8_g N_RBL<8>_XI868/MM8_s
+ N_GND_XI908/MM10_b NCH L=6e-08 W=1.2e-07 M=1
mXI868/MM7 N_XI868/NET08_XI868/MM7_d N_XI868/QB_XI868/MM7_g N_GND_XI868/MM7_s
+ N_GND_XI908/MM10_b NCH L=6e-08 W=1.6e-07 M=1
mXI868/MM10 N_WBL<8>_XI868/MM10_d N_WWLB<5>_XI868/MM10_g N_XI868/Q_XI868/MM10_s
+ N_GND_XI908/MM10_b NCH L=6e-08 W=1.8e-07 M=1
mXI868/MM11 N_WBLB<8>_XI868/MM11_d N_WWLB<5>_XI868/MM11_g
+ N_XI868/QB_XI868/MM11_s N_GND_XI908/MM10_b NCH L=6e-08 W=1.8e-07 M=1
mXI868/MM1 N_XI868/Q_XI868/MM1_d N_XI868/QB_XI868/MM1_g N_GND_XI868/MM1_s
+ N_GND_XI908/MM10_b NCH L=6e-08 W=1.2e-07 M=1
mXI868/MM0 N_XI868/QB_XI868/MM0_d N_XI868/Q_XI868/MM0_g N_GND_XI868/MM0_s
+ N_GND_XI908/MM10_b NCH L=6e-08 W=1.2e-07 M=1
mXI868/MM9 N_XI868/NET08_XI868/MM9_d N_RWLB<5>_XI868/MM9_g N_RBL<8>_XI868/MM9_s
+ N_VDD_XI900/MM6_b PCH L=6e-08 W=1.2e-07 M=1
mXI868/MM6 N_XI868/NET08_XI868/MM6_d N_XI868/QB_XI868/MM6_g N_VDD_XI868/MM6_s
+ N_VDD_XI900/MM6_b PCH L=6e-08 W=4.8e-07 M=1
mXI868/MM5 N_XI868/Q_XI868/MM5_d N_XI868/QB_XI868/MM5_g N_VDD_XI868/MM5_s
+ N_VDD_XI900/MM6_b PCH L=6e-08 W=2.4e-07 M=1
mXI868/MM4 N_XI868/QB_XI868/MM4_d N_XI868/Q_XI868/MM4_g N_VDD_XI868/MM4_s
+ N_VDD_XI900/MM6_b PCH L=6e-08 W=2.4e-07 M=1
mXI905/MM8 N_XI905/NET08_XI905/MM8_d N_RWL<7>_XI905/MM8_g N_RBL<3>_XI905/MM8_s
+ N_GND_XI908/MM10_b NCH L=6e-08 W=1.2e-07 M=1
mXI905/MM7 N_XI905/NET08_XI905/MM7_d N_XI905/QB_XI905/MM7_g N_GND_XI905/MM7_s
+ N_GND_XI908/MM10_b NCH L=6e-08 W=1.6e-07 M=1
mXI905/MM10 N_WBL<3>_XI905/MM10_d N_WWLB<7>_XI905/MM10_g N_XI905/Q_XI905/MM10_s
+ N_GND_XI908/MM10_b NCH L=6e-08 W=1.8e-07 M=1
mXI905/MM11 N_WBLB<3>_XI905/MM11_d N_WWLB<7>_XI905/MM11_g
+ N_XI905/QB_XI905/MM11_s N_GND_XI908/MM10_b NCH L=6e-08 W=1.8e-07 M=1
mXI905/MM1 N_XI905/Q_XI905/MM1_d N_XI905/QB_XI905/MM1_g N_GND_XI905/MM1_s
+ N_GND_XI908/MM10_b NCH L=6e-08 W=1.2e-07 M=1
mXI905/MM0 N_XI905/QB_XI905/MM0_d N_XI905/Q_XI905/MM0_g N_GND_XI905/MM0_s
+ N_GND_XI908/MM10_b NCH L=6e-08 W=1.2e-07 M=1
mXI905/MM9 N_XI905/NET08_XI905/MM9_d N_RWLB<7>_XI905/MM9_g N_RBL<3>_XI905/MM9_s
+ N_VDD_XI906/MM6_b PCH L=6e-08 W=1.2e-07 M=1
mXI905/MM6 N_XI905/NET08_XI905/MM6_d N_XI905/QB_XI905/MM6_g N_VDD_XI905/MM6_s
+ N_VDD_XI906/MM6_b PCH L=6e-08 W=4.8e-07 M=1
mXI905/MM5 N_XI905/Q_XI905/MM5_d N_XI905/QB_XI905/MM5_g N_VDD_XI905/MM5_s
+ N_VDD_XI906/MM6_b PCH L=6e-08 W=2.4e-07 M=1
mXI905/MM4 N_XI905/QB_XI905/MM4_d N_XI905/Q_XI905/MM4_g N_VDD_XI905/MM4_s
+ N_VDD_XI906/MM6_b PCH L=6e-08 W=2.4e-07 M=1
mXI904/MM8 N_XI904/NET08_XI904/MM8_d N_RWL<7>_XI904/MM8_g N_RBL<4>_XI904/MM8_s
+ N_GND_XI908/MM10_b NCH L=6e-08 W=1.2e-07 M=1
mXI904/MM7 N_XI904/NET08_XI904/MM7_d N_XI904/QB_XI904/MM7_g N_GND_XI904/MM7_s
+ N_GND_XI908/MM10_b NCH L=6e-08 W=1.6e-07 M=1
mXI904/MM10 N_WBL<4>_XI904/MM10_d N_WWLB<7>_XI904/MM10_g N_XI904/Q_XI904/MM10_s
+ N_GND_XI908/MM10_b NCH L=6e-08 W=1.8e-07 M=1
mXI904/MM11 N_WBLB<4>_XI904/MM11_d N_WWLB<7>_XI904/MM11_g
+ N_XI904/QB_XI904/MM11_s N_GND_XI908/MM10_b NCH L=6e-08 W=1.8e-07 M=1
mXI904/MM1 N_XI904/Q_XI904/MM1_d N_XI904/QB_XI904/MM1_g N_GND_XI904/MM1_s
+ N_GND_XI908/MM10_b NCH L=6e-08 W=1.2e-07 M=1
mXI904/MM0 N_XI904/QB_XI904/MM0_d N_XI904/Q_XI904/MM0_g N_GND_XI904/MM0_s
+ N_GND_XI908/MM10_b NCH L=6e-08 W=1.2e-07 M=1
mXI904/MM9 N_XI904/NET08_XI904/MM9_d N_RWLB<7>_XI904/MM9_g N_RBL<4>_XI904/MM9_s
+ N_VDD_XI904/MM6_b PCH L=6e-08 W=1.2e-07 M=1
mXI904/MM6 N_XI904/NET08_XI904/MM6_d N_XI904/QB_XI904/MM6_g N_VDD_XI904/MM6_s
+ N_VDD_XI904/MM6_b PCH L=6e-08 W=4.8e-07 M=1
mXI904/MM5 N_XI904/Q_XI904/MM5_d N_XI904/QB_XI904/MM5_g N_VDD_XI904/MM5_s
+ N_VDD_XI904/MM6_b PCH L=6e-08 W=2.4e-07 M=1
mXI904/MM4 N_XI904/QB_XI904/MM4_d N_XI904/Q_XI904/MM4_g N_VDD_XI904/MM4_s
+ N_VDD_XI904/MM6_b PCH L=6e-08 W=2.4e-07 M=1
mXI903/MM8 N_XI903/NET08_XI903/MM8_d N_RWL<7>_XI903/MM8_g N_RBL<5>_XI903/MM8_s
+ N_GND_XI908/MM10_b NCH L=6e-08 W=1.2e-07 M=1
mXI903/MM7 N_XI903/NET08_XI903/MM7_d N_XI903/QB_XI903/MM7_g N_GND_XI903/MM7_s
+ N_GND_XI908/MM10_b NCH L=6e-08 W=1.6e-07 M=1
mXI903/MM10 N_WBL<5>_XI903/MM10_d N_WWLB<7>_XI903/MM10_g N_XI903/Q_XI903/MM10_s
+ N_GND_XI908/MM10_b NCH L=6e-08 W=1.8e-07 M=1
mXI903/MM11 N_WBLB<5>_XI903/MM11_d N_WWLB<7>_XI903/MM11_g
+ N_XI903/QB_XI903/MM11_s N_GND_XI908/MM10_b NCH L=6e-08 W=1.8e-07 M=1
mXI903/MM1 N_XI903/Q_XI903/MM1_d N_XI903/QB_XI903/MM1_g N_GND_XI903/MM1_s
+ N_GND_XI908/MM10_b NCH L=6e-08 W=1.2e-07 M=1
mXI903/MM0 N_XI903/QB_XI903/MM0_d N_XI903/Q_XI903/MM0_g N_GND_XI903/MM0_s
+ N_GND_XI908/MM10_b NCH L=6e-08 W=1.2e-07 M=1
mXI903/MM9 N_XI903/NET08_XI903/MM9_d N_RWLB<7>_XI903/MM9_g N_RBL<5>_XI903/MM9_s
+ N_VDD_XI904/MM6_b PCH L=6e-08 W=1.2e-07 M=1
mXI903/MM6 N_XI903/NET08_XI903/MM6_d N_XI903/QB_XI903/MM6_g N_VDD_XI903/MM6_s
+ N_VDD_XI904/MM6_b PCH L=6e-08 W=4.8e-07 M=1
mXI903/MM5 N_XI903/Q_XI903/MM5_d N_XI903/QB_XI903/MM5_g N_VDD_XI903/MM5_s
+ N_VDD_XI904/MM6_b PCH L=6e-08 W=2.4e-07 M=1
mXI903/MM4 N_XI903/QB_XI903/MM4_d N_XI903/Q_XI903/MM4_g N_VDD_XI903/MM4_s
+ N_VDD_XI904/MM6_b PCH L=6e-08 W=2.4e-07 M=1
mXI902/MM8 N_XI902/NET08_XI902/MM8_d N_RWL<7>_XI902/MM8_g N_RBL<6>_XI902/MM8_s
+ N_GND_XI908/MM10_b NCH L=6e-08 W=1.2e-07 M=1
mXI902/MM7 N_XI902/NET08_XI902/MM7_d N_XI902/QB_XI902/MM7_g N_GND_XI902/MM7_s
+ N_GND_XI908/MM10_b NCH L=6e-08 W=1.6e-07 M=1
mXI902/MM10 N_WBL<6>_XI902/MM10_d N_WWLB<7>_XI902/MM10_g N_XI902/Q_XI902/MM10_s
+ N_GND_XI908/MM10_b NCH L=6e-08 W=1.8e-07 M=1
mXI902/MM11 N_WBLB<6>_XI902/MM11_d N_WWLB<7>_XI902/MM11_g
+ N_XI902/QB_XI902/MM11_s N_GND_XI908/MM10_b NCH L=6e-08 W=1.8e-07 M=1
mXI902/MM1 N_XI902/Q_XI902/MM1_d N_XI902/QB_XI902/MM1_g N_GND_XI902/MM1_s
+ N_GND_XI908/MM10_b NCH L=6e-08 W=1.2e-07 M=1
mXI902/MM0 N_XI902/QB_XI902/MM0_d N_XI902/Q_XI902/MM0_g N_GND_XI902/MM0_s
+ N_GND_XI908/MM10_b NCH L=6e-08 W=1.2e-07 M=1
mXI902/MM9 N_XI902/NET08_XI902/MM9_d N_RWLB<7>_XI902/MM9_g N_RBL<6>_XI902/MM9_s
+ N_VDD_XI902/MM6_b PCH L=6e-08 W=1.2e-07 M=1
mXI902/MM6 N_XI902/NET08_XI902/MM6_d N_XI902/QB_XI902/MM6_g N_VDD_XI902/MM6_s
+ N_VDD_XI902/MM6_b PCH L=6e-08 W=4.8e-07 M=1
mXI902/MM5 N_XI902/Q_XI902/MM5_d N_XI902/QB_XI902/MM5_g N_VDD_XI902/MM5_s
+ N_VDD_XI902/MM6_b PCH L=6e-08 W=2.4e-07 M=1
mXI902/MM4 N_XI902/QB_XI902/MM4_d N_XI902/Q_XI902/MM4_g N_VDD_XI902/MM4_s
+ N_VDD_XI902/MM6_b PCH L=6e-08 W=2.4e-07 M=1
mXI901/MM8 N_XI901/NET08_XI901/MM8_d N_RWL<7>_XI901/MM8_g N_RBL<7>_XI901/MM8_s
+ N_GND_XI908/MM10_b NCH L=6e-08 W=1.2e-07 M=1
mXI901/MM7 N_XI901/NET08_XI901/MM7_d N_XI901/QB_XI901/MM7_g N_GND_XI901/MM7_s
+ N_GND_XI908/MM10_b NCH L=6e-08 W=1.6e-07 M=1
mXI901/MM10 N_WBL<7>_XI901/MM10_d N_WWLB<7>_XI901/MM10_g N_XI901/Q_XI901/MM10_s
+ N_GND_XI908/MM10_b NCH L=6e-08 W=1.8e-07 M=1
mXI901/MM11 N_WBLB<7>_XI901/MM11_d N_WWLB<7>_XI901/MM11_g
+ N_XI901/QB_XI901/MM11_s N_GND_XI908/MM10_b NCH L=6e-08 W=1.8e-07 M=1
mXI901/MM1 N_XI901/Q_XI901/MM1_d N_XI901/QB_XI901/MM1_g N_GND_XI901/MM1_s
+ N_GND_XI908/MM10_b NCH L=6e-08 W=1.2e-07 M=1
mXI901/MM0 N_XI901/QB_XI901/MM0_d N_XI901/Q_XI901/MM0_g N_GND_XI901/MM0_s
+ N_GND_XI908/MM10_b NCH L=6e-08 W=1.2e-07 M=1
mXI901/MM9 N_XI901/NET08_XI901/MM9_d N_RWLB<7>_XI901/MM9_g N_RBL<7>_XI901/MM9_s
+ N_VDD_XI902/MM6_b PCH L=6e-08 W=1.2e-07 M=1
mXI901/MM6 N_XI901/NET08_XI901/MM6_d N_XI901/QB_XI901/MM6_g N_VDD_XI901/MM6_s
+ N_VDD_XI902/MM6_b PCH L=6e-08 W=4.8e-07 M=1
mXI901/MM5 N_XI901/Q_XI901/MM5_d N_XI901/QB_XI901/MM5_g N_VDD_XI901/MM5_s
+ N_VDD_XI902/MM6_b PCH L=6e-08 W=2.4e-07 M=1
mXI901/MM4 N_XI901/QB_XI901/MM4_d N_XI901/Q_XI901/MM4_g N_VDD_XI901/MM4_s
+ N_VDD_XI902/MM6_b PCH L=6e-08 W=2.4e-07 M=1
mXI890/MM8 N_XI890/NET08_XI890/MM8_d N_RWL<6>_XI890/MM8_g N_RBL<2>_XI890/MM8_s
+ N_GND_XI908/MM10_b NCH L=6e-08 W=1.2e-07 M=1
mXI890/MM7 N_XI890/NET08_XI890/MM7_d N_XI890/QB_XI890/MM7_g N_GND_XI890/MM7_s
+ N_GND_XI908/MM10_b NCH L=6e-08 W=1.6e-07 M=1
mXI890/MM10 N_WBL<2>_XI890/MM10_d N_WWLB<6>_XI890/MM10_g N_XI890/Q_XI890/MM10_s
+ N_GND_XI908/MM10_b NCH L=6e-08 W=1.8e-07 M=1
mXI890/MM11 N_WBLB<2>_XI890/MM11_d N_WWLB<6>_XI890/MM11_g
+ N_XI890/QB_XI890/MM11_s N_GND_XI908/MM10_b NCH L=6e-08 W=1.8e-07 M=1
mXI890/MM1 N_XI890/Q_XI890/MM1_d N_XI890/QB_XI890/MM1_g N_GND_XI890/MM1_s
+ N_GND_XI908/MM10_b NCH L=6e-08 W=1.2e-07 M=1
mXI890/MM0 N_XI890/QB_XI890/MM0_d N_XI890/Q_XI890/MM0_g N_GND_XI890/MM0_s
+ N_GND_XI908/MM10_b NCH L=6e-08 W=1.2e-07 M=1
mXI890/MM9 N_XI890/NET08_XI890/MM9_d N_RWLB<6>_XI890/MM9_g N_RBL<2>_XI890/MM9_s
+ N_VDD_XI906/MM6_b PCH L=6e-08 W=1.2e-07 M=1
mXI890/MM6 N_XI890/NET08_XI890/MM6_d N_XI890/QB_XI890/MM6_g N_VDD_XI890/MM6_s
+ N_VDD_XI906/MM6_b PCH L=6e-08 W=4.8e-07 M=1
mXI890/MM5 N_XI890/Q_XI890/MM5_d N_XI890/QB_XI890/MM5_g N_VDD_XI890/MM5_s
+ N_VDD_XI906/MM6_b PCH L=6e-08 W=2.4e-07 M=1
mXI890/MM4 N_XI890/QB_XI890/MM4_d N_XI890/Q_XI890/MM4_g N_VDD_XI890/MM4_s
+ N_VDD_XI906/MM6_b PCH L=6e-08 W=2.4e-07 M=1
mXI889/MM8 N_XI889/NET08_XI889/MM8_d N_RWL<6>_XI889/MM8_g N_RBL<3>_XI889/MM8_s
+ N_GND_XI908/MM10_b NCH L=6e-08 W=1.2e-07 M=1
mXI889/MM7 N_XI889/NET08_XI889/MM7_d N_XI889/QB_XI889/MM7_g N_GND_XI889/MM7_s
+ N_GND_XI908/MM10_b NCH L=6e-08 W=1.6e-07 M=1
mXI889/MM10 N_WBL<3>_XI889/MM10_d N_WWLB<6>_XI889/MM10_g N_XI889/Q_XI889/MM10_s
+ N_GND_XI908/MM10_b NCH L=6e-08 W=1.8e-07 M=1
mXI889/MM11 N_WBLB<3>_XI889/MM11_d N_WWLB<6>_XI889/MM11_g
+ N_XI889/QB_XI889/MM11_s N_GND_XI908/MM10_b NCH L=6e-08 W=1.8e-07 M=1
mXI889/MM1 N_XI889/Q_XI889/MM1_d N_XI889/QB_XI889/MM1_g N_GND_XI889/MM1_s
+ N_GND_XI908/MM10_b NCH L=6e-08 W=1.2e-07 M=1
mXI889/MM0 N_XI889/QB_XI889/MM0_d N_XI889/Q_XI889/MM0_g N_GND_XI889/MM0_s
+ N_GND_XI908/MM10_b NCH L=6e-08 W=1.2e-07 M=1
mXI889/MM9 N_XI889/NET08_XI889/MM9_d N_RWLB<6>_XI889/MM9_g N_RBL<3>_XI889/MM9_s
+ N_VDD_XI906/MM6_b PCH L=6e-08 W=1.2e-07 M=1
mXI889/MM6 N_XI889/NET08_XI889/MM6_d N_XI889/QB_XI889/MM6_g N_VDD_XI889/MM6_s
+ N_VDD_XI906/MM6_b PCH L=6e-08 W=4.8e-07 M=1
mXI889/MM5 N_XI889/Q_XI889/MM5_d N_XI889/QB_XI889/MM5_g N_VDD_XI889/MM5_s
+ N_VDD_XI906/MM6_b PCH L=6e-08 W=2.4e-07 M=1
mXI889/MM4 N_XI889/QB_XI889/MM4_d N_XI889/Q_XI889/MM4_g N_VDD_XI889/MM4_s
+ N_VDD_XI906/MM6_b PCH L=6e-08 W=2.4e-07 M=1
mXI888/MM8 N_XI888/NET08_XI888/MM8_d N_RWL<6>_XI888/MM8_g N_RBL<4>_XI888/MM8_s
+ N_GND_XI908/MM10_b NCH L=6e-08 W=1.2e-07 M=1
mXI888/MM7 N_XI888/NET08_XI888/MM7_d N_XI888/QB_XI888/MM7_g N_GND_XI888/MM7_s
+ N_GND_XI908/MM10_b NCH L=6e-08 W=1.6e-07 M=1
mXI888/MM10 N_WBL<4>_XI888/MM10_d N_WWLB<6>_XI888/MM10_g N_XI888/Q_XI888/MM10_s
+ N_GND_XI908/MM10_b NCH L=6e-08 W=1.8e-07 M=1
mXI888/MM11 N_WBLB<4>_XI888/MM11_d N_WWLB<6>_XI888/MM11_g
+ N_XI888/QB_XI888/MM11_s N_GND_XI908/MM10_b NCH L=6e-08 W=1.8e-07 M=1
mXI888/MM1 N_XI888/Q_XI888/MM1_d N_XI888/QB_XI888/MM1_g N_GND_XI888/MM1_s
+ N_GND_XI908/MM10_b NCH L=6e-08 W=1.2e-07 M=1