* File: /home/wjin/dmtalen/sram/10TSRAM_PEX/16x16_10T_new.pex.netlist
* Created: Mon Aug 14 10:51:10 2017
* Program "Calibre xRC"
* Version "v2011.3_18.12"
* 
.include "/home/wjin/dmtalen/sram/10TSRAM_PEX/16x16_10T_new.pex.netlist.pex"
.subckt array16x16_10T_new  wwlb<15> wwlb<14> wwlb<13> wwlb<12> wwlb<11> wwlb<10>
+ wwlb<9> wwlb<8> wwlb<7> wwlb<6> wwlb<5> wwlb<4> wwlb<3> wwlb<2> wwlb<1>
+ wwlb<0> rwl<15> rwl<14> rwl<13> rwl<12> rwl<11> rwl<10> rwl<9> rwl<8> rwl<7>
+ rwl<6> rwl<5> rwl<4> rwl<3> rwl<2> rwl<1> rwl<0> rwlb<15> rwlb<14> rwlb<13>
+ rwlb<12> rwlb<11> rwlb<10> rwlb<9> rwlb<8> rwlb<7> rwlb<6> rwlb<5> rwlb<4>
+ rwlb<3> rwlb<2> rwlb<1> rwlb<0> wbl<15> wbl<14> wbl<13> wbl<12> wbl<11>
+ wbl<10> wbl<9> wbl<8> wbl<7> wbl<6> wbl<5> wbl<4> wbl<3> wbl<2> wbl<1> wbl<0> + wblb<15> wblb<14> wblb<13> wblb<12> wblb<11> wblb<10> wblb<9> wblb<8> wblb<7>
+ wblb<6> wblb<5> wblb<4> wblb<3> wblb<2> wblb<1> wblb<0> rbl<15> rbl<14>
+ rbl<13> rbl<12> rbl<11> rbl<10> rbl<9> rbl<8> rbl<7> rbl<6> rbl<5> rbl<4>
+ rbl<3> rbl<2> rbl<1> rbl<0>
* 
* WBLB<0>	WBLB<0>
* WBL<0>	WBL<0>
* WBL<1>	WBL<1>
* WBLB<1>	WBLB<1>
* WBLB<2>	WBLB<2>
* WBL<2>	WBL<2>
* WBL<3>	WBL<3>
* WBLB<3>	WBLB<3>
* WBLB<4>	WBLB<4>
* WBL<4>	WBL<4>
* WBL<5>	WBL<5>
* WBLB<5>	WBLB<5>
* WBLB<6>	WBLB<6>
* WBL<6>	WBL<6>
* WBL<7>	WBL<7>
* WBLB<7>	WBLB<7>
* WBLB<8>	WBLB<8>
* WBL<8>	WBL<8>
* WBL<9>	WBL<9>
* WBLB<9>	WBLB<9>
* WBLB<10>	WBLB<10>
* WBL<10>	WBL<10>
* WBL<11>	WBL<11>
* WBLB<11>	WBLB<11>
* WBLB<12>	WBLB<12>
* WBL<12>	WBL<12>
* WBL<13>	WBL<13>
* WBLB<13>	WBLB<13>
* WBLB<14>	WBLB<14>
* WBL<14>	WBL<14>
* WBL<15>	WBL<15>
* WBLB<15>	WBLB<15>
* RWL<7>	RWL<7>
* RWL<6>	RWL<6>
* RWL<5>	RWL<5>
* RWL<4>	RWL<4>
* RWL<3>	RWL<3>
* RWL<2>	RWL<2>
* RWL<1>	RWL<1>
* RWL<0>	RWL<0>
* WWLB<7>	WWLB<7>
* WWLB<6>	WWLB<6>
* WWLB<5>	WWLB<5>
* WWLB<4>	WWLB<4>
* WWLB<3>	WWLB<3>
* WWLB<2>	WWLB<2>
* WWLB<1>	WWLB<1>
* WWLB<0>	WWLB<0>
* RWL<15>	RWL<15>
* RWL<14>	RWL<14>
* RWL<13>	RWL<13>
* RWL<12>	RWL<12>
* RWL<11>	RWL<11>
* RWL<10>	RWL<10>
* RWL<9>	RWL<9>
* RWL<8>	RWL<8>
* WWLB<15>	WWLB<15>
* WWLB<14>	WWLB<14>
* WWLB<13>	WWLB<13>
* WWLB<12>	WWLB<12>
* WWLB<11>	WWLB<11>
* WWLB<10>	WWLB<10>
* WWLB<9>	WWLB<9>
* WWLB<8>	WWLB<8>
* GND	GND
* RWLB<7>	RWLB<7>
* RWLB<6>	RWLB<6>
* RWLB<5>	RWLB<5>
* RWLB<4>	RWLB<4>
* RWLB<3>	RWLB<3>
* RWLB<2>	RWLB<2>
* RWLB<1>	RWLB<1>
* RWLB<0>	RWLB<0>
* RWLB<15>	RWLB<15>
* RWLB<14>	RWLB<14>
* RWLB<13>	RWLB<13>
* RWLB<12>	RWLB<12>
* RWLB<11>	RWLB<11>
* RWLB<10>	RWLB<10>
* RWLB<9>	RWLB<9>
* RWLB<8>	RWLB<8>
* VDD	VDD
* RBL<0>	RBL<0>
* RBL<1>	RBL<1>
* RBL<2>	RBL<2>
* RBL<3>	RBL<3>
* RBL<4>	RBL<4>
* RBL<5>	RBL<5>
* RBL<6>	RBL<6>
* RBL<7>	RBL<7>
* RBL<8>	RBL<8>
* RBL<9>	RBL<9>
* RBL<10>	RBL<10>
* RBL<11>	RBL<11>
* RBL<12>	RBL<12>
* RBL<13>	RBL<13>
* RBL<14>	RBL<14>
* RBL<15>	RBL<15>
mXI1006/MM8 N_XI1006/NET08_XI1006/MM8_d N_RWL<14>_XI1006/MM8_g
+ N_RBL<14>_XI1006/MM8_s N_GND_XI1037/MM11_b NCH L=6e-08 W=1.2e-07 M=1
mXI1006/MM7 N_XI1006/NET08_XI1006/MM7_d N_XI1006/QB_XI1006/MM7_g
+ N_GND_XI1006/MM7_s N_GND_XI1037/MM11_b NCH L=6e-08 W=1.2e-07 M=1
mXI1006/MM10 N_WBL<14>_XI1006/MM10_d N_WWLB<14>_XI1006/MM10_g
+ N_XI1006/Q_XI1006/MM10_s N_GND_XI1037/MM11_b NCH L=6e-08 W=2.4e-07 M=1
mXI1006/MM11 N_WBLB<14>_XI1006/MM11_d N_WWLB<14>_XI1006/MM11_g
+ N_XI1006/QB_XI1006/MM11_s N_GND_XI1037/MM11_b NCH L=6e-08 W=2.4e-07 M=1
mXI1006/MM1 N_XI1006/Q_XI1006/MM1_d N_XI1006/QB_XI1006/MM1_g N_GND_XI1006/MM1_s
+ N_GND_XI1037/MM11_b NCH L=6e-08 W=1.2e-07 M=1
mXI1006/MM0 N_XI1006/QB_XI1006/MM0_d N_XI1006/Q_XI1006/MM0_g N_GND_XI1006/MM0_s
+ N_GND_XI1037/MM11_b NCH L=6e-08 W=1.2e-07 M=1
mXI1006/MM9 N_XI1006/NET08_XI1006/MM9_d N_RWLB<14>_XI1006/MM9_g
+ N_RBL<14>_XI1006/MM9_s N_VDD_XI1022/MM9_b PCH L=6e-08 W=3.6e-07 M=1
mXI1006/MM6 N_XI1006/NET08_XI1006/MM6_d N_XI1006/QB_XI1006/MM6_g
+ N_VDD_XI1006/MM6_s N_VDD_XI1022/MM9_b PCH L=6e-08 W=3.6e-07 M=1
mXI1006/MM5 N_XI1006/Q_XI1006/MM5_d N_XI1006/QB_XI1006/MM5_g N_VDD_XI1006/MM5_s
+ N_VDD_XI1022/MM9_b PCH L=6e-08 W=3.6e-07 M=1
mXI1006/MM4 N_XI1006/QB_XI1006/MM4_d N_XI1006/Q_XI1006/MM4_g N_VDD_XI1006/MM4_s
+ N_VDD_XI1022/MM9_b PCH L=6e-08 W=3.6e-07 M=1
mXI1020/MM8 N_XI1020/NET08_XI1020/MM8_d N_RWL<14>_XI1020/MM8_g
+ N_RBL<0>_XI1020/MM8_s N_GND_XI1037/MM11_b NCH L=6e-08 W=1.2e-07 M=1
mXI1020/MM7 N_XI1020/NET08_XI1020/MM7_d N_XI1020/QB_XI1020/MM7_g
+ N_GND_XI1020/MM7_s N_GND_XI1037/MM11_b NCH L=6e-08 W=1.2e-07 M=1
mXI1020/MM10 N_WBL<0>_XI1020/MM10_d N_WWLB<14>_XI1020/MM10_g
+ N_XI1020/Q_XI1020/MM10_s N_GND_XI1037/MM11_b NCH L=6e-08 W=2.4e-07 M=1
mXI1020/MM11 N_WBLB<0>_XI1020/MM11_d N_WWLB<14>_XI1020/MM11_g
+ N_XI1020/QB_XI1020/MM11_s N_GND_XI1037/MM11_b NCH L=6e-08 W=2.4e-07 M=1
mXI1020/MM1 N_XI1020/Q_XI1020/MM1_d N_XI1020/QB_XI1020/MM1_g N_GND_XI1020/MM1_s
+ N_GND_XI1037/MM11_b NCH L=6e-08 W=1.2e-07 M=1
mXI1020/MM0 N_XI1020/QB_XI1020/MM0_d N_XI1020/Q_XI1020/MM0_g N_GND_XI1020/MM0_s
+ N_GND_XI1037/MM11_b NCH L=6e-08 W=1.2e-07 M=1
mXI1020/MM9 N_XI1020/NET08_XI1020/MM9_d N_RWLB<14>_XI1020/MM9_g
+ N_RBL<0>_XI1020/MM9_s N_VDD_XI1036/MM9_b PCH L=6e-08 W=3.6e-07 M=1
mXI1020/MM6 N_XI1020/NET08_XI1020/MM6_d N_XI1020/QB_XI1020/MM6_g
+ N_VDD_XI1020/MM6_s N_VDD_XI1036/MM9_b PCH L=6e-08 W=3.6e-07 M=1
mXI1020/MM5 N_XI1020/Q_XI1020/MM5_d N_XI1020/QB_XI1020/MM5_g N_VDD_XI1020/MM5_s
+ N_VDD_XI1036/MM9_b PCH L=6e-08 W=3.6e-07 M=1
mXI1020/MM4 N_XI1020/QB_XI1020/MM4_d N_XI1020/Q_XI1020/MM4_g N_VDD_XI1020/MM4_s
+ N_VDD_XI1036/MM9_b PCH L=6e-08 W=3.6e-07 M=1
mXI1019/MM8 N_XI1019/NET08_XI1019/MM8_d N_RWL<14>_XI1019/MM8_g
+ N_RBL<1>_XI1019/MM8_s N_GND_XI1037/MM11_b NCH L=6e-08 W=1.2e-07 M=1
mXI1019/MM7 N_XI1019/NET08_XI1019/MM7_d N_XI1019/QB_XI1019/MM7_g
+ N_GND_XI1019/MM7_s N_GND_XI1037/MM11_b NCH L=6e-08 W=1.2e-07 M=1
mXI1019/MM10 N_WBL<1>_XI1019/MM10_d N_WWLB<14>_XI1019/MM10_g
+ N_XI1019/Q_XI1019/MM10_s N_GND_XI1037/MM11_b NCH L=6e-08 W=2.4e-07 M=1
mXI1019/MM11 N_WBLB<1>_XI1019/MM11_d N_WWLB<14>_XI1019/MM11_g
+ N_XI1019/QB_XI1019/MM11_s N_GND_XI1037/MM11_b NCH L=6e-08 W=2.4e-07 M=1
mXI1019/MM1 N_XI1019/Q_XI1019/MM1_d N_XI1019/QB_XI1019/MM1_g N_GND_XI1019/MM1_s
+ N_GND_XI1037/MM11_b NCH L=6e-08 W=1.2e-07 M=1
mXI1019/MM0 N_XI1019/QB_XI1019/MM0_d N_XI1019/Q_XI1019/MM0_g N_GND_XI1019/MM0_s
+ N_GND_XI1037/MM11_b NCH L=6e-08 W=1.2e-07 M=1
mXI1019/MM9 N_XI1019/NET08_XI1019/MM9_d N_RWLB<14>_XI1019/MM9_g
+ N_RBL<1>_XI1019/MM9_s N_VDD_XI1034/MM9_b PCH L=6e-08 W=3.6e-07 M=1
mXI1019/MM6 N_XI1019/NET08_XI1019/MM6_d N_XI1019/QB_XI1019/MM6_g
+ N_VDD_XI1019/MM6_s N_VDD_XI1034/MM9_b PCH L=6e-08 W=3.6e-07 M=1
mXI1019/MM5 N_XI1019/Q_XI1019/MM5_d N_XI1019/QB_XI1019/MM5_g N_VDD_XI1019/MM5_s
+ N_VDD_XI1034/MM9_b PCH L=6e-08 W=3.6e-07 M=1
mXI1019/MM4 N_XI1019/QB_XI1019/MM4_d N_XI1019/Q_XI1019/MM4_g N_VDD_XI1019/MM4_s
+ N_VDD_XI1034/MM9_b PCH L=6e-08 W=3.6e-07 M=1
mXI1018/MM8 N_XI1018/NET08_XI1018/MM8_d N_RWL<14>_XI1018/MM8_g
+ N_RBL<2>_XI1018/MM8_s N_GND_XI1037/MM11_b NCH L=6e-08 W=1.2e-07 M=1
mXI1018/MM7 N_XI1018/NET08_XI1018/MM7_d N_XI1018/QB_XI1018/MM7_g
+ N_GND_XI1018/MM7_s N_GND_XI1037/MM11_b NCH L=6e-08 W=1.2e-07 M=1
mXI1018/MM10 N_WBL<2>_XI1018/MM10_d N_WWLB<14>_XI1018/MM10_g
+ N_XI1018/Q_XI1018/MM10_s N_GND_XI1037/MM11_b NCH L=6e-08 W=2.4e-07 M=1
mXI1018/MM11 N_WBLB<2>_XI1018/MM11_d N_WWLB<14>_XI1018/MM11_g
+ N_XI1018/QB_XI1018/MM11_s N_GND_XI1037/MM11_b NCH L=6e-08 W=2.4e-07 M=1
mXI1018/MM1 N_XI1018/Q_XI1018/MM1_d N_XI1018/QB_XI1018/MM1_g N_GND_XI1018/MM1_s
+ N_GND_XI1037/MM11_b NCH L=6e-08 W=1.2e-07 M=1
mXI1018/MM0 N_XI1018/QB_XI1018/MM0_d N_XI1018/Q_XI1018/MM0_g N_GND_XI1018/MM0_s
+ N_GND_XI1037/MM11_b NCH L=6e-08 W=1.2e-07 M=1
mXI1018/MM9 N_XI1018/NET08_XI1018/MM9_d N_RWLB<14>_XI1018/MM9_g
+ N_RBL<2>_XI1018/MM9_s N_VDD_XI1034/MM9_b PCH L=6e-08 W=3.6e-07 M=1
mXI1018/MM6 N_XI1018/NET08_XI1018/MM6_d N_XI1018/QB_XI1018/MM6_g
+ N_VDD_XI1018/MM6_s N_VDD_XI1034/MM9_b PCH L=6e-08 W=3.6e-07 M=1
mXI1018/MM5 N_XI1018/Q_XI1018/MM5_d N_XI1018/QB_XI1018/MM5_g N_VDD_XI1018/MM5_s
+ N_VDD_XI1034/MM9_b PCH L=6e-08 W=3.6e-07 M=1
mXI1018/MM4 N_XI1018/QB_XI1018/MM4_d N_XI1018/Q_XI1018/MM4_g N_VDD_XI1018/MM4_s
+ N_VDD_XI1034/MM9_b PCH L=6e-08 W=3.6e-07 M=1
mXI1017/MM8 N_XI1017/NET08_XI1017/MM8_d N_RWL<14>_XI1017/MM8_g
+ N_RBL<3>_XI1017/MM8_s N_GND_XI1037/MM11_b NCH L=6e-08 W=1.2e-07 M=1
mXI1017/MM7 N_XI1017/NET08_XI1017/MM7_d N_XI1017/QB_XI1017/MM7_g
+ N_GND_XI1017/MM7_s N_GND_XI1037/MM11_b NCH L=6e-08 W=1.2e-07 M=1
mXI1017/MM10 N_WBL<3>_XI1017/MM10_d N_WWLB<14>_XI1017/MM10_g
+ N_XI1017/Q_XI1017/MM10_s N_GND_XI1037/MM11_b NCH L=6e-08 W=2.4e-07 M=1
mXI1017/MM11 N_WBLB<3>_XI1017/MM11_d N_WWLB<14>_XI1017/MM11_g
+ N_XI1017/QB_XI1017/MM11_s N_GND_XI1037/MM11_b NCH L=6e-08 W=2.4e-07 M=1
mXI1017/MM1 N_XI1017/Q_XI1017/MM1_d N_XI1017/QB_XI1017/MM1_g N_GND_XI1017/MM1_s
+ N_GND_XI1037/MM11_b NCH L=6e-08 W=1.2e-07 M=1
mXI1017/MM0 N_XI1017/QB_XI1017/MM0_d N_XI1017/Q_XI1017/MM0_g N_GND_XI1017/MM0_s
+ N_GND_XI1037/MM11_b NCH L=6e-08 W=1.2e-07 M=1
mXI1017/MM9 N_XI1017/NET08_XI1017/MM9_d N_RWLB<14>_XI1017/MM9_g
+ N_RBL<3>_XI1017/MM9_s N_VDD_XI1032/MM9_b PCH L=6e-08 W=3.6e-07 M=1
mXI1017/MM6 N_XI1017/NET08_XI1017/MM6_d N_XI1017/QB_XI1017/MM6_g
+ N_VDD_XI1017/MM6_s N_VDD_XI1032/MM9_b PCH L=6e-08 W=3.6e-07 M=1
mXI1017/MM5 N_XI1017/Q_XI1017/MM5_d N_XI1017/QB_XI1017/MM5_g N_VDD_XI1017/MM5_s
+ N_VDD_XI1032/MM9_b PCH L=6e-08 W=3.6e-07 M=1
mXI1017/MM4 N_XI1017/QB_XI1017/MM4_d N_XI1017/Q_XI1017/MM4_g N_VDD_XI1017/MM4_s
+ N_VDD_XI1032/MM9_b PCH L=6e-08 W=3.6e-07 M=1
mXI1016/MM8 N_XI1016/NET08_XI1016/MM8_d N_RWL<14>_XI1016/MM8_g
+ N_RBL<4>_XI1016/MM8_s N_GND_XI1037/MM11_b NCH L=6e-08 W=1.2e-07 M=1
mXI1016/MM7 N_XI1016/NET08_XI1016/MM7_d N_XI1016/QB_XI1016/MM7_g
+ N_GND_XI1016/MM7_s N_GND_XI1037/MM11_b NCH L=6e-08 W=1.2e-07 M=1
mXI1016/MM10 N_WBL<4>_XI1016/MM10_d N_WWLB<14>_XI1016/MM10_g
+ N_XI1016/Q_XI1016/MM10_s N_GND_XI1037/MM11_b NCH L=6e-08 W=2.4e-07 M=1
mXI1016/MM11 N_WBLB<4>_XI1016/MM11_d N_WWLB<14>_XI1016/MM11_g
+ N_XI1016/QB_XI1016/MM11_s N_GND_XI1037/MM11_b NCH L=6e-08 W=2.4e-07 M=1
mXI1016/MM1 N_XI1016/Q_XI1016/MM1_d N_XI1016/QB_XI1016/MM1_g N_GND_XI1016/MM1_s
+ N_GND_XI1037/MM11_b NCH L=6e-08 W=1.2e-07 M=1
mXI1016/MM0 N_XI1016/QB_XI1016/MM0_d N_XI1016/Q_XI1016/MM0_g N_GND_XI1016/MM0_s
+ N_GND_XI1037/MM11_b NCH L=6e-08 W=1.2e-07 M=1
mXI1016/MM9 N_XI1016/NET08_XI1016/MM9_d N_RWLB<14>_XI1016/MM9_g
+ N_RBL<4>_XI1016/MM9_s N_VDD_XI1032/MM9_b PCH L=6e-08 W=3.6e-07 M=1
mXI1016/MM6 N_XI1016/NET08_XI1016/MM6_d N_XI1016/QB_XI1016/MM6_g
+ N_VDD_XI1016/MM6_s N_VDD_XI1032/MM9_b PCH L=6e-08 W=3.6e-07 M=1
mXI1016/MM5 N_XI1016/Q_XI1016/MM5_d N_XI1016/QB_XI1016/MM5_g N_VDD_XI1016/MM5_s
+ N_VDD_XI1032/MM9_b PCH L=6e-08 W=3.6e-07 M=1
mXI1016/MM4 N_XI1016/QB_XI1016/MM4_d N_XI1016/Q_XI1016/MM4_g N_VDD_XI1016/MM4_s
+ N_VDD_XI1032/MM9_b PCH L=6e-08 W=3.6e-07 M=1
mXI1015/MM8 N_XI1015/NET08_XI1015/MM8_d N_RWL<14>_XI1015/MM8_g
+ N_RBL<5>_XI1015/MM8_s N_GND_XI1037/MM11_b NCH L=6e-08 W=1.2e-07 M=1
mXI1015/MM7 N_XI1015/NET08_XI1015/MM7_d N_XI1015/QB_XI1015/MM7_g
+ N_GND_XI1015/MM7_s N_GND_XI1037/MM11_b NCH L=6e-08 W=1.2e-07 M=1
mXI1015/MM10 N_WBL<5>_XI1015/MM10_d N_WWLB<14>_XI1015/MM10_g
+ N_XI1015/Q_XI1015/MM10_s N_GND_XI1037/MM11_b NCH L=6e-08 W=2.4e-07 M=1
mXI1015/MM11 N_WBLB<5>_XI1015/MM11_d N_WWLB<14>_XI1015/MM11_g
+ N_XI1015/QB_XI1015/MM11_s N_GND_XI1037/MM11_b NCH L=6e-08 W=2.4e-07 M=1
mXI1015/MM1 N_XI1015/Q_XI1015/MM1_d N_XI1015/QB_XI1015/MM1_g N_GND_XI1015/MM1_s
+ N_GND_XI1037/MM11_b NCH L=6e-08 W=1.2e-07 M=1
mXI1015/MM0 N_XI1015/QB_XI1015/MM0_d N_XI1015/Q_XI1015/MM0_g N_GND_XI1015/MM0_s
+ N_GND_XI1037/MM11_b NCH L=6e-08 W=1.2e-07 M=1
mXI1015/MM9 N_XI1015/NET08_XI1015/MM9_d N_RWLB<14>_XI1015/MM9_g
+ N_RBL<5>_XI1015/MM9_s N_VDD_XI1030/MM9_b PCH L=6e-08 W=3.6e-07 M=1
mXI1015/MM6 N_XI1015/NET08_XI1015/MM6_d N_XI1015/QB_XI1015/MM6_g
+ N_VDD_XI1015/MM6_s N_VDD_XI1030/MM9_b PCH L=6e-08 W=3.6e-07 M=1
mXI1015/MM5 N_XI1015/Q_XI1015/MM5_d N_XI1015/QB_XI1015/MM5_g N_VDD_XI1015/MM5_s
+ N_VDD_XI1030/MM9_b PCH L=6e-08 W=3.6e-07 M=1
mXI1015/MM4 N_XI1015/QB_XI1015/MM4_d N_XI1015/Q_XI1015/MM4_g N_VDD_XI1015/MM4_s
+ N_VDD_XI1030/MM9_b PCH L=6e-08 W=3.6e-07 M=1
mXI1014/MM8 N_XI1014/NET08_XI1014/MM8_d N_RWL<14>_XI1014/MM8_g
+ N_RBL<6>_XI1014/MM8_s N_GND_XI1037/MM11_b NCH L=6e-08 W=1.2e-07 M=1
mXI1014/MM7 N_XI1014/NET08_XI1014/MM7_d N_XI1014/QB_XI1014/MM7_g
+ N_GND_XI1014/MM7_s N_GND_XI1037/MM11_b NCH L=6e-08 W=1.2e-07 M=1
mXI1014/MM10 N_WBL<6>_XI1014/MM10_d N_WWLB<14>_XI1014/MM10_g
+ N_XI1014/Q_XI1014/MM10_s N_GND_XI1037/MM11_b NCH L=6e-08 W=2.4e-07 M=1
mXI1014/MM11 N_WBLB<6>_XI1014/MM11_d N_WWLB<14>_XI1014/MM11_g
+ N_XI1014/QB_XI1014/MM11_s N_GND_XI1037/MM11_b NCH L=6e-08 W=2.4e-07 M=1
mXI1014/MM1 N_XI1014/Q_XI1014/MM1_d N_XI1014/QB_XI1014/MM1_g N_GND_XI1014/MM1_s
+ N_GND_XI1037/MM11_b NCH L=6e-08 W=1.2e-07 M=1
mXI1014/MM0 N_XI1014/QB_XI1014/MM0_d N_XI1014/Q_XI1014/MM0_g N_GND_XI1014/MM0_s
+ N_GND_XI1037/MM11_b NCH L=6e-08 W=1.2e-07 M=1
mXI1014/MM9 N_XI1014/NET08_XI1014/MM9_d N_RWLB<14>_XI1014/MM9_g
+ N_RBL<6>_XI1014/MM9_s N_VDD_XI1030/MM9_b PCH L=6e-08 W=3.6e-07 M=1
mXI1014/MM6 N_XI1014/NET08_XI1014/MM6_d N_XI1014/QB_XI1014/MM6_g
+ N_VDD_XI1014/MM6_s N_VDD_XI1030/MM9_b PCH L=6e-08 W=3.6e-07 M=1
mXI1014/MM5 N_XI1014/Q_XI1014/MM5_d N_XI1014/QB_XI1014/MM5_g N_VDD_XI1014/MM5_s
+ N_VDD_XI1030/MM9_b PCH L=6e-08 W=3.6e-07 M=1
mXI1014/MM4 N_XI1014/QB_XI1014/MM4_d N_XI1014/Q_XI1014/MM4_g N_VDD_XI1014/MM4_s
+ N_VDD_XI1030/MM9_b PCH L=6e-08 W=3.6e-07 M=1
mXI1013/MM8 N_XI1013/NET08_XI1013/MM8_d N_RWL<14>_XI1013/MM8_g
+ N_RBL<7>_XI1013/MM8_s N_GND_XI1037/MM11_b NCH L=6e-08 W=1.2e-07 M=1
mXI1013/MM7 N_XI1013/NET08_XI1013/MM7_d N_XI1013/QB_XI1013/MM7_g
+ N_GND_XI1013/MM7_s N_GND_XI1037/MM11_b NCH L=6e-08 W=1.2e-07 M=1
mXI1013/MM10 N_WBL<7>_XI1013/MM10_d N_WWLB<14>_XI1013/MM10_g
+ N_XI1013/Q_XI1013/MM10_s N_GND_XI1037/MM11_b NCH L=6e-08 W=2.4e-07 M=1
mXI1013/MM11 N_WBLB<7>_XI1013/MM11_d N_WWLB<14>_XI1013/MM11_g
+ N_XI1013/QB_XI1013/MM11_s N_GND_XI1037/MM11_b NCH L=6e-08 W=2.4e-07 M=1
mXI1013/MM1 N_XI1013/Q_XI1013/MM1_d N_XI1013/QB_XI1013/MM1_g N_GND_XI1013/MM1_s
+ N_GND_XI1037/MM11_b NCH L=6e-08 W=1.2e-07 M=1
mXI1013/MM0 N_XI1013/QB_XI1013/MM0_d N_XI1013/Q_XI1013/MM0_g N_GND_XI1013/MM0_s
+ N_GND_XI1037/MM11_b NCH L=6e-08 W=1.2e-07 M=1
mXI1013/MM9 N_XI1013/NET08_XI1013/MM9_d N_RWLB<14>_XI1013/MM9_g
+ N_RBL<7>_XI1013/MM9_s N_VDD_XI1028/MM9_b PCH L=6e-08 W=3.6e-07 M=1
mXI1013/MM6 N_XI1013/NET08_XI1013/MM6_d N_XI1013/QB_XI1013/MM6_g
+ N_VDD_XI1013/MM6_s N_VDD_XI1028/MM9_b PCH L=6e-08 W=3.6e-07 M=1
mXI1013/MM5 N_XI1013/Q_XI1013/MM5_d N_XI1013/QB_XI1013/MM5_g N_VDD_XI1013/MM5_s
+ N_VDD_XI1028/MM9_b PCH L=6e-08 W=3.6e-07 M=1
mXI1013/MM4 N_XI1013/QB_XI1013/MM4_d N_XI1013/Q_XI1013/MM4_g N_VDD_XI1013/MM4_s
+ N_VDD_XI1028/MM9_b PCH L=6e-08 W=3.6e-07 M=1
mXI1012/MM8 N_XI1012/NET08_XI1012/MM8_d N_RWL<14>_XI1012/MM8_g
+ N_RBL<8>_XI1012/MM8_s N_GND_XI1037/MM11_b NCH L=6e-08 W=1.2e-07 M=1
mXI1012/MM7 N_XI1012/NET08_XI1012/MM7_d N_XI1012/QB_XI1012/MM7_g
+ N_GND_XI1012/MM7_s N_GND_XI1037/MM11_b NCH L=6e-08 W=1.2e-07 M=1
mXI1012/MM10 N_WBL<8>_XI1012/MM10_d N_WWLB<14>_XI1012/MM10_g
+ N_XI1012/Q_XI1012/MM10_s N_GND_XI1037/MM11_b NCH L=6e-08 W=2.4e-07 M=1
mXI1012/MM11 N_WBLB<8>_XI1012/MM11_d N_WWLB<14>_XI1012/MM11_g
+ N_XI1012/QB_XI1012/MM11_s N_GND_XI1037/MM11_b NCH L=6e-08 W=2.4e-07 M=1
mXI1012/MM1 N_XI1012/Q_XI1012/MM1_d N_XI1012/QB_XI1012/MM1_g N_GND_XI1012/MM1_s
+ N_GND_XI1037/MM11_b NCH L=6e-08 W=1.2e-07 M=1
mXI1012/MM0 N_XI1012/QB_XI1012/MM0_d N_XI1012/Q_XI1012/MM0_g N_GND_XI1012/MM0_s
+ N_GND_XI1037/MM11_b NCH L=6e-08 W=1.2e-07 M=1
mXI1012/MM9 N_XI1012/NET08_XI1012/MM9_d N_RWLB<14>_XI1012/MM9_g
+ N_RBL<8>_XI1012/MM9_s N_VDD_XI1028/MM9_b PCH L=6e-08 W=3.6e-07 M=1
mXI1012/MM6 N_XI1012/NET08_XI1012/MM6_d N_XI1012/QB_XI1012/MM6_g
+ N_VDD_XI1012/MM6_s N_VDD_XI1028/MM9_b PCH L=6e-08 W=3.6e-07 M=1
mXI1012/MM5 N_XI1012/Q_XI1012/MM5_d N_XI1012/QB_XI1012/MM5_g N_VDD_XI1012/MM5_s
+ N_VDD_XI1028/MM9_b PCH L=6e-08 W=3.6e-07 M=1
mXI1012/MM4 N_XI1012/QB_XI1012/MM4_d N_XI1012/Q_XI1012/MM4_g N_VDD_XI1012/MM4_s
+ N_VDD_XI1028/MM9_b PCH L=6e-08 W=3.6e-07 M=1
mXI1011/MM8 N_XI1011/NET08_XI1011/MM8_d N_RWL<14>_XI1011/MM8_g
+ N_RBL<9>_XI1011/MM8_s N_GND_XI1037/MM11_b NCH L=6e-08 W=1.2e-07 M=1
mXI1011/MM7 N_XI1011/NET08_XI1011/MM7_d N_XI1011/QB_XI1011/MM7_g
+ N_GND_XI1011/MM7_s N_GND_XI1037/MM11_b NCH L=6e-08 W=1.2e-07 M=1
mXI1011/MM10 N_WBL<9>_XI1011/MM10_d N_WWLB<14>_XI1011/MM10_g
+ N_XI1011/Q_XI1011/MM10_s N_GND_XI1037/MM11_b NCH L=6e-08 W=2.4e-07 M=1
mXI1011/MM11 N_WBLB<9>_XI1011/MM11_d N_WWLB<14>_XI1011/MM11_g
+ N_XI1011/QB_XI1011/MM11_s N_GND_XI1037/MM11_b NCH L=6e-08 W=2.4e-07 M=1
mXI1011/MM1 N_XI1011/Q_XI1011/MM1_d N_XI1011/QB_XI1011/MM1_g N_GND_XI1011/MM1_s
+ N_GND_XI1037/MM11_b NCH L=6e-08 W=1.2e-07 M=1
mXI1011/MM0 N_XI1011/QB_XI1011/MM0_d N_XI1011/Q_XI1011/MM0_g N_GND_XI1011/MM0_s
+ N_GND_XI1037/MM11_b NCH L=6e-08 W=1.2e-07 M=1
mXI1011/MM9 N_XI1011/NET08_XI1011/MM9_d N_RWLB<14>_XI1011/MM9_g
+ N_RBL<9>_XI1011/MM9_s N_VDD_XI1026/MM9_b PCH L=6e-08 W=3.6e-07 M=1
mXI1011/MM6 N_XI1011/NET08_XI1011/MM6_d N_XI1011/QB_XI1011/MM6_g
+ N_VDD_XI1011/MM6_s N_VDD_XI1026/MM9_b PCH L=6e-08 W=3.6e-07 M=1
mXI1011/MM5 N_XI1011/Q_XI1011/MM5_d N_XI1011/QB_XI1011/MM5_g N_VDD_XI1011/MM5_s
+ N_VDD_XI1026/MM9_b PCH L=6e-08 W=3.6e-07 M=1
mXI1011/MM4 N_XI1011/QB_XI1011/MM4_d N_XI1011/Q_XI1011/MM4_g N_VDD_XI1011/MM4_s
+ N_VDD_XI1026/MM9_b PCH L=6e-08 W=3.6e-07 M=1
mXI1010/MM8 N_XI1010/NET08_XI1010/MM8_d N_RWL<14>_XI1010/MM8_g
+ N_RBL<10>_XI1010/MM8_s N_GND_XI1037/MM11_b NCH L=6e-08 W=1.2e-07 M=1
mXI1010/MM7 N_XI1010/NET08_XI1010/MM7_d N_XI1010/QB_XI1010/MM7_g
+ N_GND_XI1010/MM7_s N_GND_XI1037/MM11_b NCH L=6e-08 W=1.2e-07 M=1
mXI1010/MM10 N_WBL<10>_XI1010/MM10_d N_WWLB<14>_XI1010/MM10_g
+ N_XI1010/Q_XI1010/MM10_s N_GND_XI1037/MM11_b NCH L=6e-08 W=2.4e-07 M=1
mXI1010/MM11 N_WBLB<10>_XI1010/MM11_d N_WWLB<14>_XI1010/MM11_g
+ N_XI1010/QB_XI1010/MM11_s N_GND_XI1037/MM11_b NCH L=6e-08 W=2.4e-07 M=1
mXI1010/MM1 N_XI1010/Q_XI1010/MM1_d N_XI1010/QB_XI1010/MM1_g N_GND_XI1010/MM1_s
+ N_GND_XI1037/MM11_b NCH L=6e-08 W=1.2e-07 M=1
mXI1010/MM0 N_XI1010/QB_XI1010/MM0_d N_XI1010/Q_XI1010/MM0_g N_GND_XI1010/MM0_s
+ N_GND_XI1037/MM11_b NCH L=6e-08 W=1.2e-07 M=1
mXI1010/MM9 N_XI1010/NET08_XI1010/MM9_d N_RWLB<14>_XI1010/MM9_g
+ N_RBL<10>_XI1010/MM9_s N_VDD_XI1026/MM9_b PCH L=6e-08 W=3.6e-07 M=1
mXI1010/MM6 N_XI1010/NET08_XI1010/MM6_d N_XI1010/QB_XI1010/MM6_g
+ N_VDD_XI1010/MM6_s N_VDD_XI1026/MM9_b PCH L=6e-08 W=3.6e-07 M=1
mXI1010/MM5 N_XI1010/Q_XI1010/MM5_d N_XI1010/QB_XI1010/MM5_g N_VDD_XI1010/MM5_s
+ N_VDD_XI1026/MM9_b PCH L=6e-08 W=3.6e-07 M=1
mXI1010/MM4 N_XI1010/QB_XI1010/MM4_d N_XI1010/Q_XI1010/MM4_g N_VDD_XI1010/MM4_s
+ N_VDD_XI1026/MM9_b PCH L=6e-08 W=3.6e-07 M=1
mXI1009/MM8 N_XI1009/NET08_XI1009/MM8_d N_RWL<14>_XI1009/MM8_g
+ N_RBL<11>_XI1009/MM8_s N_GND_XI1037/MM11_b NCH L=6e-08 W=1.2e-07 M=1
mXI1009/MM7 N_XI1009/NET08_XI1009/MM7_d N_XI1009/QB_XI1009/MM7_g
+ N_GND_XI1009/MM7_s N_GND_XI1037/MM11_b NCH L=6e-08 W=1.2e-07 M=1
mXI1009/MM10 N_WBL<11>_XI1009/MM10_d N_WWLB<14>_XI1009/MM10_g
+ N_XI1009/Q_XI1009/MM10_s N_GND_XI1037/MM11_b NCH L=6e-08 W=2.4e-07 M=1
mXI1009/MM11 N_WBLB<11>_XI1009/MM11_d N_WWLB<14>_XI1009/MM11_g
+ N_XI1009/QB_XI1009/MM11_s N_GND_XI1037/MM11_b NCH L=6e-08 W=2.4e-07 M=1
mXI1009/MM1 N_XI1009/Q_XI1009/MM1_d N_XI1009/QB_XI1009/MM1_g N_GND_XI1009/MM1_s
+ N_GND_XI1037/MM11_b NCH L=6e-08 W=1.2e-07 M=1
mXI1009/MM0 N_XI1009/QB_XI1009/MM0_d N_XI1009/Q_XI1009/MM0_g N_GND_XI1009/MM0_s
+ N_GND_XI1037/MM11_b NCH L=6e-08 W=1.2e-07 M=1
mXI1009/MM9 N_XI1009/NET08_XI1009/MM9_d N_RWLB<14>_XI1009/MM9_g
+ N_RBL<11>_XI1009/MM9_s N_VDD_XI1024/MM9_b PCH L=6e-08 W=3.6e-07 M=1
mXI1009/MM6 N_XI1009/NET08_XI1009/MM6_d N_XI1009/QB_XI1009/MM6_g
+ N_VDD_XI1009/MM6_s N_VDD_XI1024/MM9_b PCH L=6e-08 W=3.6e-07 M=1
mXI1009/MM5 N_XI1009/Q_XI1009/MM5_d N_XI1009/QB_XI1009/MM5_g N_VDD_XI1009/MM5_s
+ N_VDD_XI1024/MM9_b PCH L=6e-08 W=3.6e-07 M=1
mXI1009/MM4 N_XI1009/QB_XI1009/MM4_d N_XI1009/Q_XI1009/MM4_g N_VDD_XI1009/MM4_s
+ N_VDD_XI1024/MM9_b PCH L=6e-08 W=3.6e-07 M=1
mXI1008/MM8 N_XI1008/NET08_XI1008/MM8_d N_RWL<14>_XI1008/MM8_g
+ N_RBL<12>_XI1008/MM8_s N_GND_XI1037/MM11_b NCH L=6e-08 W=1.2e-07 M=1
mXI1008/MM7 N_XI1008/NET08_XI1008/MM7_d N_XI1008/QB_XI1008/MM7_g
+ N_GND_XI1008/MM7_s N_GND_XI1037/MM11_b NCH L=6e-08 W=1.2e-07 M=1
mXI1008/MM10 N_WBL<12>_XI1008/MM10_d N_WWLB<14>_XI1008/MM10_g
+ N_XI1008/Q_XI1008/MM10_s N_GND_XI1037/MM11_b NCH L=6e-08 W=2.4e-07 M=1
mXI1008/MM11 N_WBLB<12>_XI1008/MM11_d N_WWLB<14>_XI1008/MM11_g
+ N_XI1008/QB_XI1008/MM11_s N_GND_XI1037/MM11_b NCH L=6e-08 W=2.4e-07 M=1
mXI1008/MM1 N_XI1008/Q_XI1008/MM1_d N_XI1008/QB_XI1008/MM1_g N_GND_XI1008/MM1_s
+ N_GND_XI1037/MM11_b NCH L=6e-08 W=1.2e-07 M=1
mXI1008/MM0 N_XI1008/QB_XI1008/MM0_d N_XI1008/Q_XI1008/MM0_g N_GND_XI1008/MM0_s
+ N_GND_XI1037/MM11_b NCH L=6e-08 W=1.2e-07 M=1
mXI1008/MM9 N_XI1008/NET08_XI1008/MM9_d N_RWLB<14>_XI1008/MM9_g
+ N_RBL<12>_XI1008/MM9_s N_VDD_XI1024/MM9_b PCH L=6e-08 W=3.6e-07 M=1
mXI1008/MM6 N_XI1008/NET08_XI1008/MM6_d N_XI1008/QB_XI1008/MM6_g
+ N_VDD_XI1008/MM6_s N_VDD_XI1024/MM9_b PCH L=6e-08 W=3.6e-07 M=1
mXI1008/MM5 N_XI1008/Q_XI1008/MM5_d N_XI1008/QB_XI1008/MM5_g N_VDD_XI1008/MM5_s
+ N_VDD_XI1024/MM9_b PCH L=6e-08 W=3.6e-07 M=1
mXI1008/MM4 N_XI1008/QB_XI1008/MM4_d N_XI1008/Q_XI1008/MM4_g N_VDD_XI1008/MM4_s
+ N_VDD_XI1024/MM9_b PCH L=6e-08 W=3.6e-07 M=1
mXI1007/MM8 N_XI1007/NET08_XI1007/MM8_d N_RWL<14>_XI1007/MM8_g
+ N_RBL<13>_XI1007/MM8_s N_GND_XI1037/MM11_b NCH L=6e-08 W=1.2e-07 M=1
mXI1007/MM7 N_XI1007/NET08_XI1007/MM7_d N_XI1007/QB_XI1007/MM7_g
+ N_GND_XI1007/MM7_s N_GND_XI1037/MM11_b NCH L=6e-08 W=1.2e-07 M=1
mXI1007/MM10 N_WBL<13>_XI1007/MM10_d N_WWLB<14>_XI1007/MM10_g
+ N_XI1007/Q_XI1007/MM10_s N_GND_XI1037/MM11_b NCH L=6e-08 W=2.4e-07 M=1
mXI1007/MM11 N_WBLB<13>_XI1007/MM11_d N_WWLB<14>_XI1007/MM11_g
+ N_XI1007/QB_XI1007/MM11_s N_GND_XI1037/MM11_b NCH L=6e-08 W=2.4e-07 M=1
mXI1007/MM1 N_XI1007/Q_XI1007/MM1_d N_XI1007/QB_XI1007/MM1_g N_GND_XI1007/MM1_s
+ N_GND_XI1037/MM11_b NCH L=6e-08 W=1.2e-07 M=1
mXI1007/MM0 N_XI1007/QB_XI1007/MM0_d N_XI1007/Q_XI1007/MM0_g N_GND_XI1007/MM0_s
+ N_GND_XI1037/MM11_b NCH L=6e-08 W=1.2e-07 M=1
mXI1007/MM9 N_XI1007/NET08_XI1007/MM9_d N_RWLB<14>_XI1007/MM9_g
+ N_RBL<13>_XI1007/MM9_s N_VDD_XI1022/MM9_b PCH L=6e-08 W=3.6e-07 M=1
mXI1007/MM6 N_XI1007/NET08_XI1007/MM6_d N_XI1007/QB_XI1007/MM6_g
+ N_VDD_XI1007/MM6_s N_VDD_XI1022/MM9_b PCH L=6e-08 W=3.6e-07 M=1
mXI1007/MM5 N_XI1007/Q_XI1007/MM5_d N_XI1007/QB_XI1007/MM5_g N_VDD_XI1007/MM5_s
+ N_VDD_XI1022/MM9_b PCH L=6e-08 W=3.6e-07 M=1
mXI1007/MM4 N_XI1007/QB_XI1007/MM4_d N_XI1007/Q_XI1007/MM4_g N_VDD_XI1007/MM4_s
+ N_VDD_XI1022/MM9_b PCH L=6e-08 W=3.6e-07 M=1
mXI1021/MM8 N_XI1021/NET08_XI1021/MM8_d N_RWL<14>_XI1021/MM8_g
+ N_RBL<15>_XI1021/MM8_s N_GND_XI1037/MM11_b NCH L=6e-08 W=1.2e-07 M=1
mXI1021/MM7 N_XI1021/NET08_XI1021/MM7_d N_XI1021/QB_XI1021/MM7_g
+ N_GND_XI1021/MM7_s N_GND_XI1037/MM11_b NCH L=6e-08 W=1.2e-07 M=1
mXI1021/MM10 N_WBL<15>_XI1021/MM10_d N_WWLB<14>_XI1021/MM10_g
+ N_XI1021/Q_XI1021/MM10_s N_GND_XI1037/MM11_b NCH L=6e-08 W=2.4e-07 M=1
mXI1021/MM11 N_WBLB<15>_XI1021/MM11_d N_WWLB<14>_XI1021/MM11_g
+ N_XI1021/QB_XI1021/MM11_s N_GND_XI1037/MM11_b NCH L=6e-08 W=2.4e-07 M=1
mXI1021/MM1 N_XI1021/Q_XI1021/MM1_d N_XI1021/QB_XI1021/MM1_g N_GND_XI1021/MM1_s
+ N_GND_XI1037/MM11_b NCH L=6e-08 W=1.2e-07 M=1
mXI1021/MM0 N_XI1021/QB_XI1021/MM0_d N_XI1021/Q_XI1021/MM0_g N_GND_XI1021/MM0_s
+ N_GND_XI1037/MM11_b NCH L=6e-08 W=1.2e-07 M=1
mXI1021/MM9 N_XI1021/NET08_XI1021/MM9_d N_RWLB<14>_XI1021/MM9_g
+ N_RBL<15>_XI1021/MM9_s N_VDD_XI1037/MM9_b PCH L=6e-08 W=3.6e-07 M=1
mXI1021/MM6 N_XI1021/NET08_XI1021/MM6_d N_XI1021/QB_XI1021/MM6_g
+ N_VDD_XI1021/MM6_s N_VDD_XI1037/MM9_b PCH L=6e-08 W=3.6e-07 M=1
mXI1021/MM5 N_XI1021/Q_XI1021/MM5_d N_XI1021/QB_XI1021/MM5_g N_VDD_XI1021/MM5_s
+ N_VDD_XI1037/MM9_b PCH L=6e-08 W=3.6e-07 M=1
mXI1021/MM4 N_XI1021/QB_XI1021/MM4_d N_XI1021/Q_XI1021/MM4_g N_VDD_XI1021/MM4_s
+ N_VDD_XI1037/MM9_b PCH L=6e-08 W=3.6e-07 M=1
mXI1037/MM8 N_XI1037/NET08_XI1037/MM8_d N_RWL<15>_XI1037/MM8_g
+ N_RBL<15>_XI1037/MM8_s N_GND_XI1037/MM11_b NCH L=6e-08 W=1.2e-07 M=1
mXI1037/MM7 N_XI1037/NET08_XI1037/MM7_d N_XI1037/QB_XI1037/MM7_g
+ N_GND_XI1037/MM7_s N_GND_XI1037/MM11_b NCH L=6e-08 W=1.2e-07 M=1
mXI1037/MM10 N_WBL<15>_XI1037/MM10_d N_WWLB<15>_XI1037/MM10_g
+ N_XI1037/Q_XI1037/MM10_s N_GND_XI1037/MM11_b NCH L=6e-08 W=2.4e-07 M=1
mXI1037/MM11 N_WBLB<15>_XI1037/MM11_d N_WWLB<15>_XI1037/MM11_g
+ N_XI1037/QB_XI1037/MM11_s N_GND_XI1037/MM11_b NCH L=6e-08 W=2.4e-07 M=1
mXI1037/MM1 N_XI1037/Q_XI1037/MM1_d N_XI1037/QB_XI1037/MM1_g N_GND_XI1037/MM1_s
+ N_GND_XI1037/MM11_b NCH L=6e-08 W=1.2e-07 M=1
mXI1037/MM0 N_XI1037/QB_XI1037/MM0_d N_XI1037/Q_XI1037/MM0_g N_GND_XI1037/MM0_s
+ N_GND_XI1037/MM11_b NCH L=6e-08 W=1.2e-07 M=1
mXI1037/MM9 N_XI1037/NET08_XI1037/MM9_d N_RWLB<15>_XI1037/MM9_g
+ N_RBL<15>_XI1037/MM9_s N_VDD_XI1037/MM9_b PCH L=6e-08 W=3.6e-07 M=1
mXI1037/MM6 N_XI1037/NET08_XI1037/MM6_d N_XI1037/QB_XI1037/MM6_g
+ N_VDD_XI1037/MM6_s N_VDD_XI1037/MM9_b PCH L=6e-08 W=3.6e-07 M=1
mXI1037/MM5 N_XI1037/Q_XI1037/MM5_d N_XI1037/QB_XI1037/MM5_g N_VDD_XI1037/MM5_s
+ N_VDD_XI1037/MM9_b PCH L=6e-08 W=3.6e-07 M=1
mXI1037/MM4 N_XI1037/QB_XI1037/MM4_d N_XI1037/Q_XI1037/MM4_g N_VDD_XI1037/MM4_s
+ N_VDD_XI1037/MM9_b PCH L=6e-08 W=3.6e-07 M=1
mXI1036/MM8 N_XI1036/NET08_XI1036/MM8_d N_RWL<15>_XI1036/MM8_g
+ N_RBL<0>_XI1036/MM8_s N_GND_XI1037/MM11_b NCH L=6e-08 W=1.2e-07 M=1
mXI1036/MM7 N_XI1036/NET08_XI1036/MM7_d N_XI1036/QB_XI1036/MM7_g
+ N_GND_XI1036/MM7_s N_GND_XI1037/MM11_b NCH L=6e-08 W=1.2e-07 M=1
mXI1036/MM10 N_WBL<0>_XI1036/MM10_d N_WWLB<15>_XI1036/MM10_g
+ N_XI1036/Q_XI1036/MM10_s N_GND_XI1037/MM11_b NCH L=6e-08 W=2.4e-07 M=1
mXI1036/MM11 N_WBLB<0>_XI1036/MM11_d N_WWLB<15>_XI1036/MM11_g
+ N_XI1036/QB_XI1036/MM11_s N_GND_XI1037/MM11_b NCH L=6e-08 W=2.4e-07 M=1
mXI1036/MM1 N_XI1036/Q_XI1036/MM1_d N_XI1036/QB_XI1036/MM1_g N_GND_XI1036/MM1_s
+ N_GND_XI1037/MM11_b NCH L=6e-08 W=1.2e-07 M=1
mXI1036/MM0 N_XI1036/QB_XI1036/MM0_d N_XI1036/Q_XI1036/MM0_g N_GND_XI1036/MM0_s
+ N_GND_XI1037/MM11_b NCH L=6e-08 W=1.2e-07 M=1
mXI1036/MM9 N_XI1036/NET08_XI1036/MM9_d N_RWLB<15>_XI1036/MM9_g
+ N_RBL<0>_XI1036/MM9_s N_VDD_XI1036/MM9_b PCH L=6e-08 W=3.6e-07 M=1
mXI1036/MM6 N_XI1036/NET08_XI1036/MM6_d N_XI1036/QB_XI1036/MM6_g
+ N_VDD_XI1036/MM6_s N_VDD_XI1036/MM9_b PCH L=6e-08 W=3.6e-07 M=1
mXI1036/MM5 N_XI1036/Q_XI1036/MM5_d N_XI1036/QB_XI1036/MM5_g N_VDD_XI1036/MM5_s
+ N_VDD_XI1036/MM9_b PCH L=6e-08 W=3.6e-07 M=1
mXI1036/MM4 N_XI1036/QB_XI1036/MM4_d N_XI1036/Q_XI1036/MM4_g N_VDD_XI1036/MM4_s
+ N_VDD_XI1036/MM9_b PCH L=6e-08 W=3.6e-07 M=1
mXI984/MM8 N_XI984/NET08_XI984/MM8_d N_RWL<12>_XI984/MM8_g N_RBL<4>_XI984/MM8_s
+ N_GND_XI1037/MM11_b NCH L=6e-08 W=1.2e-07 M=1
mXI984/MM7 N_XI984/NET08_XI984/MM7_d N_XI984/QB_XI984/MM7_g N_GND_XI984/MM7_s
+ N_GND_XI1037/MM11_b NCH L=6e-08 W=1.2e-07 M=1
mXI984/MM10 N_WBL<4>_XI984/MM10_d N_WWLB<12>_XI984/MM10_g N_XI984/Q_XI984/MM10_s
+ N_GND_XI1037/MM11_b NCH L=6e-08 W=2.4e-07 M=1
mXI984/MM11 N_WBLB<4>_XI984/MM11_d N_WWLB<12>_XI984/MM11_g
+ N_XI984/QB_XI984/MM11_s N_GND_XI1037/MM11_b NCH L=6e-08 W=2.4e-07 M=1
mXI984/MM1 N_XI984/Q_XI984/MM1_d N_XI984/QB_XI984/MM1_g N_GND_XI984/MM1_s
+ N_GND_XI1037/MM11_b NCH L=6e-08 W=1.2e-07 M=1
mXI984/MM0 N_XI984/QB_XI984/MM0_d N_XI984/Q_XI984/MM0_g N_GND_XI984/MM0_s
+ N_GND_XI1037/MM11_b NCH L=6e-08 W=1.2e-07 M=1
mXI984/MM9 N_XI984/NET08_XI984/MM9_d N_RWLB<12>_XI984/MM9_g N_RBL<4>_XI984/MM9_s
+ N_VDD_XI1032/MM9_b PCH L=6e-08 W=3.6e-07 M=1
mXI984/MM6 N_XI984/NET08_XI984/MM6_d N_XI984/QB_XI984/MM6_g N_VDD_XI984/MM6_s
+ N_VDD_XI1032/MM9_b PCH L=6e-08 W=3.6e-07 M=1
mXI984/MM5 N_XI984/Q_XI984/MM5_d N_XI984/QB_XI984/MM5_g N_VDD_XI984/MM5_s
+ N_VDD_XI1032/MM9_b PCH L=6e-08 W=3.6e-07 M=1
mXI984/MM4 N_XI984/QB_XI984/MM4_d N_XI984/Q_XI984/MM4_g N_VDD_XI984/MM4_s
+ N_VDD_XI1032/MM9_b PCH L=6e-08 W=3.6e-07 M=1
mXI1035/MM8 N_XI1035/NET08_XI1035/MM8_d N_RWL<15>_XI1035/MM8_g
+ N_RBL<1>_XI1035/MM8_s N_GND_XI1037/MM11_b NCH L=6e-08 W=1.2e-07 M=1
mXI1035/MM7 N_XI1035/NET08_XI1035/MM7_d N_XI1035/QB_XI1035/MM7_g
+ N_GND_XI1035/MM7_s N_GND_XI1037/MM11_b NCH L=6e-08 W=1.2e-07 M=1
mXI1035/MM10 N_WBL<1>_XI1035/MM10_d N_WWLB<15>_XI1035/MM10_g
+ N_XI1035/Q_XI1035/MM10_s N_GND_XI1037/MM11_b NCH L=6e-08 W=2.4e-07 M=1
mXI1035/MM11 N_WBLB<1>_XI1035/MM11_d N_WWLB<15>_XI1035/MM11_g
+ N_XI1035/QB_XI1035/MM11_s N_GND_XI1037/MM11_b NCH L=6e-08 W=2.4e-07 M=1
mXI1035/MM1 N_XI1035/Q_XI1035/MM1_d N_XI1035/QB_XI1035/MM1_g N_GND_XI1035/MM1_s
+ N_GND_XI1037/MM11_b NCH L=6e-08 W=1.2e-07 M=1
mXI1035/MM0 N_XI1035/QB_XI1035/MM0_d N_XI1035/Q_XI1035/MM0_g N_GND_XI1035/MM0_s
+ N_GND_XI1037/MM11_b NCH L=6e-08 W=1.2e-07 M=1
mXI1035/MM9 N_XI1035/NET08_XI1035/MM9_d N_RWLB<15>_XI1035/MM9_g
+ N_RBL<1>_XI1035/MM9_s N_VDD_XI1034/MM9_b PCH L=6e-08 W=3.6e-07 M=1
mXI1035/MM6 N_XI1035/NET08_XI1035/MM6_d N_XI1035/QB_XI1035/MM6_g
+ N_VDD_XI1035/MM6_s N_VDD_XI1034/MM9_b PCH L=6e-08 W=3.6e-07 M=1
mXI1035/MM5 N_XI1035/Q_XI1035/MM5_d N_XI1035/QB_XI1035/MM5_g N_VDD_XI1035/MM5_s
+ N_VDD_XI1034/MM9_b PCH L=6e-08 W=3.6e-07 M=1
mXI1035/MM4 N_XI1035/QB_XI1035/MM4_d N_XI1035/Q_XI1035/MM4_g N_VDD_XI1035/MM4_s
+ N_VDD_XI1034/MM9_b PCH L=6e-08 W=3.6e-07 M=1
mXI992/MM8 N_XI992/NET08_XI992/MM8_d N_RWL<13>_XI992/MM8_g N_RBL<12>_XI992/MM8_s
+ N_GND_XI1037/MM11_b NCH L=6e-08 W=1.2e-07 M=1
mXI992/MM7 N_XI992/NET08_XI992/MM7_d N_XI992/QB_XI992/MM7_g N_GND_XI992/MM7_s
+ N_GND_XI1037/MM11_b NCH L=6e-08 W=1.2e-07 M=1
mXI992/MM10 N_WBL<12>_XI992/MM10_d N_WWLB<13>_XI992/MM10_g
+ N_XI992/Q_XI992/MM10_s N_GND_XI1037/MM11_b NCH L=6e-08 W=2.4e-07 M=1
mXI992/MM11 N_WBLB<12>_XI992/MM11_d N_WWLB<13>_XI992/MM11_g
+ N_XI992/QB_XI992/MM11_s N_GND_XI1037/MM11_b NCH L=6e-08 W=2.4e-07 M=1
mXI992/MM1 N_XI992/Q_XI992/MM1_d N_XI992/QB_XI992/MM1_g N_GND_XI992/MM1_s
+ N_GND_XI1037/MM11_b NCH L=6e-08 W=1.2e-07 M=1
mXI992/MM0 N_XI992/QB_XI992/MM0_d N_XI992/Q_XI992/MM0_g N_GND_XI992/MM0_s
+ N_GND_XI1037/MM11_b NCH L=6e-08 W=1.2e-07 M=1
mXI992/MM9 N_XI992/NET08_XI992/MM9_d N_RWLB<13>_XI992/MM9_g
+ N_RBL<12>_XI992/MM9_s N_VDD_XI1024/MM9_b PCH L=6e-08 W=3.6e-07 M=1
mXI992/MM6 N_XI992/NET08_XI992/MM6_d N_XI992/QB_XI992/MM6_g N_VDD_XI992/MM6_s
+ N_VDD_XI1024/MM9_b PCH L=6e-08 W=3.6e-07 M=1