$ Spice netlist generated by v2lvs
$ v2011.3_18.12    Wed Aug 10 15:08:50 PDT 2011
.INCLUDE "/home/wjin/lincx/library/spice/cmn65gp_mvt_stdcells_mac.sp" 

.SUBCKT decoder WEN A[5] A[4] A[3] A[2] A[1] A[0] wwl[63] wwl[62] wwl[61] 
+ wwl[60] wwl[59] wwl[58] wwl[57] wwl[56] wwl[55] wwl[54] wwl[53] wwl[52] 
+ wwl[51] wwl[50] wwl[49] wwl[48] wwl[47] wwl[46] wwl[45] wwl[44] wwl[43] 
+ wwl[42] wwl[41] wwl[40] wwl[39] wwl[38] wwl[37] wwl[36] wwl[35] wwl[34] 
+ wwl[33] wwl[32] wwl[31] wwl[30] wwl[29] wwl[28] wwl[27] wwl[26] wwl[25] 
+ wwl[24] wwl[23] wwl[22] wwl[21] wwl[20] wwl[19] wwl[18] wwl[17] wwl[16] 
+ wwl[15] wwl[14] wwl[13] wwl[12] wwl[11] wwl[10] wwl[9] wwl[8] wwl[7] wwl[6] 
+ wwl[5] wwl[4] wwl[3] wwl[2] wwl[1] wwl[0] rwl[31] rwl[30] rwl[29] rwl[28] 
+ rwl[27] rwl[26] rwl[25] rwl[24] rwl[23] rwl[22] rwl[21] rwl[20] rwl[19] 
+ rwl[18] rwl[17] rwl[16] rwl[15] rwl[14] rwl[13] rwl[12] rwl[11] rwl[10] 
+ rwl[9] rwl[8] rwl[7] rwl[6] rwl[5] rwl[4] rwl[3] rwl[2] rwl[1] rwl[0] 
+ rwlb[31] rwlb[30] rwlb[29] rwlb[28] rwlb[27] rwlb[26] rwlb[25] rwlb[24] 
+ rwlb[23] rwlb[22] rwlb[21] rwlb[20] rwlb[19] rwlb[18] rwlb[17] rwlb[16] 
+ rwlb[15] rwlb[14] rwlb[13] rwlb[12] rwlb[11] rwlb[10] rwlb[9] rwlb[8] rwlb[7] 
+ rwlb[6] rwlb[5] rwlb[4] rwlb[3] rwlb[2] rwlb[1] rwlb[0] 
XU71 n76 n37 rwlb[31] VDD VSS ND2D1LVT 
XU72 n77 n37 rwlb[30] VDD VSS ND2D1LVT 
XU73 n78 n79 n58 VDD VSS ND2D1LVT 
XU74 n76 n36 rwlb[29] VDD VSS ND2D1LVT 
XU75 n77 n36 rwlb[28] VDD VSS ND2D1LVT 
XU76 n80 n78 n61 VDD VSS ND2D1LVT 
XU77 n76 n35 rwlb[27] VDD VSS ND2D1LVT 
XU78 n77 n35 rwlb[26] VDD VSS ND2D1LVT 
XU79 n81 n78 n63 VDD VSS ND2D1LVT 
XU80 n76 n34 rwlb[25] VDD VSS ND2D1LVT 
XU81 n77 n34 rwlb[24] VDD VSS ND2D1LVT 
XU82 n78 n82 n64 VDD VSS ND2D1LVT 
XU83 A[4] A[3] n78 VDD VSS AN2XD1LVT 
XU84 n76 n41 rwlb[23] VDD VSS ND2D1LVT 
XU85 n77 n41 rwlb[22] VDD VSS ND2D1LVT 
XU86 n83 n79 n65 VDD VSS ND2D1LVT 
XU87 n76 n40 rwlb[21] VDD VSS ND2D1LVT 
XU88 n77 n40 rwlb[20] VDD VSS ND2D1LVT 
XU89 n83 n80 n66 VDD VSS ND2D1LVT 
XU90 n76 n39 rwlb[19] VDD VSS ND2D1LVT 
XU91 n77 n39 rwlb[18] VDD VSS ND2D1LVT 
XU92 n83 n81 n67 VDD VSS ND2D1LVT 
XU93 n76 n38 rwlb[17] VDD VSS ND2D1LVT 
XU94 n77 n38 rwlb[16] VDD VSS ND2D1LVT 
XU95 n83 n82 n68 VDD VSS ND2D1LVT 
XU96 A[4] n50 n83 VDD VSS AN2XD1LVT 
XU97 n76 n45 rwlb[15] VDD VSS ND2D1LVT 
XU98 n77 n45 rwlb[14] VDD VSS ND2D1LVT 
XU99 n79 n84 n69 VDD VSS ND2D1LVT 
XU100 n76 n44 rwlb[13] VDD VSS ND2D1LVT 
XU101 n77 n44 rwlb[12] VDD VSS ND2D1LVT 
XU102 n80 n84 n70 VDD VSS ND2D1LVT 
XU103 n76 n43 rwlb[11] VDD VSS ND2D1LVT 
XU104 n77 n43 rwlb[10] VDD VSS ND2D1LVT 
XU105 n81 n84 n71 VDD VSS ND2D1LVT 
XU106 n76 n42 rwlb[9] VDD VSS ND2D1LVT 
XU107 n77 n42 rwlb[8] VDD VSS ND2D1LVT 
XU108 n84 n82 n54 VDD VSS ND2D1LVT 
XU110 n76 n49 rwlb[7] VDD VSS ND2D1LVT 
XU111 n77 n49 rwlb[6] VDD VSS ND2D1LVT 
XU112 n85 n79 n57 VDD VSS ND2D1LVT 
XU114 n76 n48 rwlb[5] VDD VSS ND2D1LVT 
XU115 n77 n48 rwlb[4] VDD VSS ND2D1LVT 
XU116 n80 n85 n62 VDD VSS ND2D1LVT 
XU118 n76 n47 rwlb[3] VDD VSS ND2D1LVT 
XU119 n77 n47 rwlb[2] VDD VSS ND2D1LVT 
XU120 n81 n85 n72 VDD VSS ND2D1LVT 
XU122 n76 n46 rwlb[1] VDD VSS ND2D1LVT 
XU124 n77 n46 rwlb[0] VDD VSS ND2D1LVT 
XU125 n85 n82 n73 VDD VSS ND2D1LVT 
XU129 rwlb[1] rwl[1] VDD VSS INVD1LVT 
XU130 rwlb[3] rwl[3] VDD VSS INVD1LVT 
XU131 rwlb[5] rwl[5] VDD VSS INVD1LVT 
XU132 rwlb[7] rwl[7] VDD VSS INVD1LVT 
XU133 rwlb[9] rwl[9] VDD VSS INVD1LVT 
XU134 rwlb[11] rwl[11] VDD VSS INVD1LVT 
XU135 rwlb[13] rwl[13] VDD VSS INVD1LVT 
XU136 rwlb[15] rwl[15] VDD VSS INVD1LVT 
XU137 rwlb[17] rwl[17] VDD VSS INVD1LVT 
XU138 rwlb[19] rwl[19] VDD VSS INVD1LVT 
XU139 rwlb[21] rwl[21] VDD VSS INVD1LVT 
XU140 rwlb[23] rwl[23] VDD VSS INVD1LVT 
XU141 rwlb[25] rwl[25] VDD VSS INVD1LVT 
XU142 rwlb[27] rwl[27] VDD VSS INVD1LVT 
XU143 rwlb[29] rwl[29] VDD VSS INVD1LVT 
XU144 rwlb[31] rwl[31] VDD VSS INVD1LVT 
XU145 rwlb[0] rwl[0] VDD VSS INVD1LVT 
XU146 rwlb[2] rwl[2] VDD VSS INVD1LVT 
XU147 rwlb[4] rwl[4] VDD VSS INVD1LVT 
XU148 rwlb[6] rwl[6] VDD VSS INVD1LVT 
XU149 rwlb[8] rwl[8] VDD VSS INVD1LVT 
XU150 rwlb[10] rwl[10] VDD VSS INVD1LVT 
XU151 rwlb[12] rwl[12] VDD VSS INVD1LVT 
XU152 rwlb[14] rwl[14] VDD VSS INVD1LVT 
XU153 rwlb[16] rwl[16] VDD VSS INVD1LVT 
XU154 rwlb[18] rwl[18] VDD VSS INVD1LVT 
XU155 rwlb[20] rwl[20] VDD VSS INVD1LVT 
XU156 rwlb[22] rwl[22] VDD VSS INVD1LVT 
XU157 rwlb[24] rwl[24] VDD VSS INVD1LVT 
XU158 rwlb[26] rwl[26] VDD VSS INVD1LVT 
XU159 rwlb[28] rwl[28] VDD VSS INVD1LVT 
XU160 rwlb[30] rwl[30] VDD VSS INVD1LVT 
XU161 A[5] n33 VDD VSS INVD1LVT 
XU162 n64 n34 VDD VSS INVD1LVT 
XU163 n63 n35 VDD VSS INVD1LVT 
XU164 n61 n36 VDD VSS INVD1LVT 
XU165 n58 n37 VDD VSS INVD1LVT 
XU166 n68 n38 VDD VSS INVD1LVT 
XU167 n67 n39 VDD VSS INVD1LVT 
XU168 n66 n40 VDD VSS INVD1LVT 
XU169 n65 n41 VDD VSS INVD1LVT 
XU170 n54 n42 VDD VSS INVD1LVT 
XU171 n71 n43 VDD VSS INVD1LVT 
XU172 n70 n44 VDD VSS INVD1LVT 
XU173 n69 n45 VDD VSS INVD1LVT 
XU174 n73 n46 VDD VSS INVD1LVT 
XU175 n72 n47 VDD VSS INVD1LVT 
XU176 n62 n48 VDD VSS INVD1LVT 
XU177 n57 n49 VDD VSS INVD1LVT 
XU178 A[3] n50 VDD VSS INVD1LVT 
XU179 A[2] n51 VDD VSS INVD1LVT 
XU180 A[1] n52 VDD VSS INVD1LVT 
XU181 A[0] n53 VDD VSS INVD1LVT 
XU1 n60 n73 wwl[32] VDD VSS NR2XD0LVT 
XU2 n60 n72 wwl[34] VDD VSS NR2XD0LVT 
XU3 n60 n62 wwl[36] VDD VSS NR2XD0LVT 
XU4 n60 n71 wwl[42] VDD VSS NR2XD0LVT 
XU5 n60 n70 wwl[44] VDD VSS NR2XD0LVT 
XU6 n60 n69 wwl[46] VDD VSS NR2XD0LVT 
XU7 n60 n68 wwl[48] VDD VSS NR2XD0LVT 
XU8 n60 n67 wwl[50] VDD VSS NR2XD0LVT 
XU9 n60 n66 wwl[52] VDD VSS NR2XD0LVT 
XU10 n60 n65 wwl[54] VDD VSS NR2XD0LVT 
XU11 n60 n64 wwl[56] VDD VSS NR2XD0LVT 
XU12 n60 n63 wwl[58] VDD VSS NR2XD0LVT 
XU13 n60 n61 wwl[60] VDD VSS NR2XD0LVT 
XU14 n56 n73 wwl[0] VDD VSS NR2XD0LVT 
XU15 n56 n72 wwl[2] VDD VSS NR2XD0LVT 
XU16 n56 n62 wwl[4] VDD VSS NR2XD0LVT 
XU17 n56 n57 wwl[6] VDD VSS NR2XD0LVT 
XU18 n56 n71 wwl[10] VDD VSS NR2XD0LVT 
XU19 n56 n70 wwl[12] VDD VSS NR2XD0LVT 
XU20 n56 n69 wwl[14] VDD VSS NR2XD0LVT 
XU21 n56 n68 wwl[16] VDD VSS NR2XD0LVT 
XU22 n56 n67 wwl[18] VDD VSS NR2XD0LVT 
XU23 n56 n66 wwl[20] VDD VSS NR2XD0LVT 
XU24 n56 n65 wwl[22] VDD VSS NR2XD0LVT 
XU25 n56 n64 wwl[24] VDD VSS NR2XD0LVT 
XU26 n56 n63 wwl[26] VDD VSS NR2XD0LVT 
XU27 n56 n61 wwl[28] VDD VSS NR2XD0LVT 
XU28 n56 n58 wwl[30] VDD VSS NR2XD0LVT 
XU29 n57 n60 wwl[38] VDD VSS NR2XD0LVT 
XU30 n54 n60 wwl[40] VDD VSS NR2XD0LVT 
XU31 n58 n60 wwl[62] VDD VSS NR2XD0LVT 
XU32 n54 n56 wwl[8] VDD VSS NR2XD0LVT 
XU33 n74 n53 n60 VDD VSS ND2D1LVT 
XU34 n75 n53 n56 VDD VSS ND2D1LVT 
XU35 n51 n52 n79 VDD VSS NR2XD0LVT 
XU36 n55 n73 wwl[1] VDD VSS NR2XD0LVT 
XU37 n55 n72 wwl[3] VDD VSS NR2XD0LVT 
XU38 n55 n62 wwl[5] VDD VSS NR2XD0LVT 
XU39 n55 n57 wwl[7] VDD VSS NR2XD0LVT 
XU40 n55 n71 wwl[11] VDD VSS NR2XD0LVT 
XU41 n55 n70 wwl[13] VDD VSS NR2XD0LVT 
XU42 n55 n69 wwl[15] VDD VSS NR2XD0LVT 
XU43 n55 n68 wwl[17] VDD VSS NR2XD0LVT 
XU44 n55 n67 wwl[19] VDD VSS NR2XD0LVT 
XU45 n55 n66 wwl[21] VDD VSS NR2XD0LVT 
XU46 n55 n65 wwl[23] VDD VSS NR2XD0LVT 
XU47 n55 n64 wwl[25] VDD VSS NR2XD0LVT 
XU48 n55 n63 wwl[27] VDD VSS NR2XD0LVT 
XU49 n55 n61 wwl[29] VDD VSS NR2XD0LVT 
XU50 n55 n58 wwl[31] VDD VSS NR2XD0LVT 
XU51 n59 n73 wwl[33] VDD VSS NR2XD0LVT 
XU52 n59 n72 wwl[35] VDD VSS NR2XD0LVT 
XU53 n59 n62 wwl[37] VDD VSS NR2XD0LVT 
XU54 n59 n71 wwl[43] VDD VSS NR2XD0LVT 
XU55 n59 n70 wwl[45] VDD VSS NR2XD0LVT 
XU56 n59 n69 wwl[47] VDD VSS NR2XD0LVT 
XU57 n59 n68 wwl[49] VDD VSS NR2XD0LVT 
XU58 n59 n67 wwl[51] VDD VSS NR2XD0LVT 
XU59 n59 n66 wwl[53] VDD VSS NR2XD0LVT 
XU60 n59 n65 wwl[55] VDD VSS NR2XD0LVT 
XU61 n59 n64 wwl[57] VDD VSS NR2XD0LVT 
XU62 n59 n63 wwl[59] VDD VSS NR2XD0LVT 
XU63 n59 n61 wwl[61] VDD VSS NR2XD0LVT 
XU64 n57 n59 wwl[39] VDD VSS NR2XD0LVT 
XU65 n54 n59 wwl[41] VDD VSS NR2XD0LVT 
XU66 n58 n59 wwl[63] VDD VSS NR2XD0LVT 
XU67 n54 n55 wwl[9] VDD VSS NR2XD0LVT 
XU68 n74 A[0] n59 VDD VSS ND2D1LVT 
XU69 A[0] n75 n55 VDD VSS ND2D1LVT 
XU70 A[5] WEN n75 VDD VSS NR2XD0LVT 
XU109 n51 A[1] n80 VDD VSS NR2XD0LVT 
XU113 n33 WEN n74 VDD VSS NR2XD0LVT 
XU117 A[1] A[2] n82 VDD VSS NR2XD0LVT 
XU121 A[3] A[4] n85 VDD VSS NR2XD0LVT 
XU123 n50 A[4] n84 VDD VSS NR2XD0LVT 
XU126 n52 A[2] n81 VDD VSS NR2XD0LVT 
XU127 WEN A[0] n76 VDD VSS AN2XD1LVT 
XU128 WEN n53 n77 VDD VSS AN2XD1LVT 
.ENDS

.SUBCKT bitlines data[15] data[14] data[13] data[12] data[11] data[10] data[9] 
+ data[8] data[7] data[6] data[5] data[4] data[3] data[2] data[1] data[0] 
+ wbl[15] wbl[14] wbl[13] wbl[12] wbl[11] wbl[10] wbl[9] wbl[8] wbl[7] wbl[6] 
+ wbl[5] wbl[4] wbl[3] wbl[2] wbl[1] wbl[0] wblb[15] wblb[14] wblb[13] wblb[12] 
+ wblb[11] wblb[10] wblb[9] wblb[8] wblb[7] wblb[6] wblb[5] wblb[4] wblb[3] 
+ wblb[2] wblb[1] wblb[0] 
*.CONNECT wbl[15] data0[15]
*.CONNECT data0[15] data[15]
*.CONNECT wbl[14] data0[14]
*.CONNECT data0[14] data[14]
*.CONNECT wbl[13] data0[13]
*.CONNECT data0[13] data[13]
*.CONNECT wbl[12] data0[12]
*.CONNECT data0[12] data[12]
*.CONNECT wbl[11] data0[11]
*.CONNECT data0[11] data[11]
*.CONNECT wbl[10] data0[10]
*.CONNECT data0[10] data[10]
*.CONNECT wbl[9] data0[9]
*.CONNECT data0[9] data[9]
*.CONNECT wbl[8] data0[8]
*.CONNECT data0[8] data[8]
*.CONNECT wbl[7] data0[7]
*.CONNECT data0[7] data[7]
*.CONNECT wbl[6] data0[6]
*.CONNECT data0[6] data[6]
*.CONNECT wbl[5] data0[5]
*.CONNECT data0[5] data[5]
*.CONNECT wbl[4] data0[4]
*.CONNECT data0[4] data[4]
*.CONNECT wbl[3] data0[3]
*.CONNECT data0[3] data[3]
*.CONNECT wbl[2] data0[2]
*.CONNECT data0[2] data[2]
*.CONNECT wbl[1] data0[1]
*.CONNECT data0[1] data[1]
*.CONNECT wbl[0] data0[0]
*.CONNECT data0[0] data[0]
XU1 data[15] wblb[15] VDD VSS INVD1LVT 
XU2 data[14] wblb[14] VDD VSS INVD1LVT 
XU3 data[13] wblb[13] VDD VSS INVD1LVT 
XU4 data[12] wblb[12] VDD VSS INVD1LVT 
XU5 data[11] wblb[11] VDD VSS INVD1LVT 
XU6 data[10] wblb[10] VDD VSS INVD1LVT 
XU7 data[9] wblb[9] VDD VSS INVD1LVT 
XU8 data[8] wblb[8] VDD VSS INVD1LVT 
XU9 data[7] wblb[7] VDD VSS INVD1LVT 
XU10 data[6] wblb[6] VDD VSS INVD1LVT 
XU11 data[5] wblb[5] VDD VSS INVD1LVT 
XU12 data[4] wblb[4] VDD VSS INVD1LVT 
XU13 data[3] wblb[3] VDD VSS INVD1LVT 
XU14 data[2] wblb[2] VDD VSS INVD1LVT 
XU15 data[1] wblb[1] VDD VSS INVD1LVT 
XU16 data[0] wblb[0] VDD VSS INVD1LVT 
.ENDS

.SUBCKT word_0 write read read_b write_data[15] write_data[14] write_data[13] 
+ write_data[12] write_data[11] write_data[10] write_data[9] write_data[8] 
+ write_data[7] write_data[6] write_data[5] write_data[4] write_data[3] 
+ write_data[2] write_data[1] write_data[0] write_data_b[15] write_data_b[14] 
+ write_data_b[13] write_data_b[12] write_data_b[11] write_data_b[10] 
+ write_data_b[9] write_data_b[8] write_data_b[7] write_data_b[6] 
+ write_data_b[5] write_data_b[4] write_data_b[3] write_data_b[2] 
+ write_data_b[1] write_data_b[0] read_data[15] read_data[14] read_data[13] 
+ read_data[12] read_data[11] read_data[10] read_data[9] read_data[8] 
+ read_data[7] read_data[6] read_data[5] read_data[4] read_data[3] read_data[2] 
+ read_data[1] read_data[0] 
XU write_data[0] write_data_b[0] write read read_b read_data[0] bitcell 
XU0 write_data[1] write_data_b[1] write read read_b read_data[1] bitcell 
XU1 write_data[2] write_data_b[2] write read read_b read_data[2] bitcell 
XU2 write_data[3] write_data_b[3] write read read_b read_data[3] bitcell 
XU3 write_data[4] write_data_b[4] write read read_b read_data[4] bitcell 
XU4 write_data[5] write_data_b[5] write read read_b read_data[5] bitcell 
XU5 write_data[6] write_data_b[6] write read read_b read_data[6] bitcell 
XU6 write_data[7] write_data_b[7] write read read_b read_data[7] bitcell 
XU7 write_data[8] write_data_b[8] write read read_b read_data[8] bitcell 
XU8 write_data[9] write_data_b[9] write read read_b read_data[9] bitcell 
XU9 write_data[10] write_data_b[10] write read read_b read_data[10] bitcell 
XU10 write_data[11] write_data_b[11] write read read_b read_data[11] bitcell 
XU11 write_data[12] write_data_b[12] write read read_b read_data[12] bitcell 
XU12 write_data[13] write_data_b[13] write read read_b read_data[13] bitcell 
XU13 write_data[14] write_data_b[14] write read read_b read_data[14] bitcell 
XU14 write_data[15] write_data_b[15] write read read_b read_data[15] bitcell 
.ENDS

.SUBCKT word_33 write read read_b write_data[15] write_data[14] write_data[13] 
+ write_data[12] write_data[11] write_data[10] write_data[9] write_data[8] 
+ write_data[7] write_data[6] write_data[5] write_data[4] write_data[3] 
+ write_data[2] write_data[1] write_data[0] write_data_b[15] write_data_b[14] 
+ write_data_b[13] write_data_b[12] write_data_b[11] write_data_b[10] 
+ write_data_b[9] write_data_b[8] write_data_b[7] write_data_b[6] 
+ write_data_b[5] write_data_b[4] write_data_b[3] write_data_b[2] 
+ write_data_b[1] write_data_b[0] read_data[15] read_data[14] read_data[13] 
+ read_data[12] read_data[11] read_data[10] read_data[9] read_data[8] 
+ read_data[7] read_data[6] read_data[5] read_data[4] read_data[3] read_data[2] 
+ read_data[1] read_data[0] 
XU write_data[0] write_data_b[0] write read read_b read_data[0] bitcell 
XU0 write_data[1] write_data_b[1] write read read_b read_data[1] bitcell 
XU1 write_data[2] write_data_b[2] write read read_b read_data[2] bitcell 
XU2 write_data[3] write_data_b[3] write read read_b read_data[3] bitcell 
XU3 write_data[4] write_data_b[4] write read read_b read_data[4] bitcell 
XU4 write_data[5] write_data_b[5] write read read_b read_data[5] bitcell 
XU5 write_data[6] write_data_b[6] write read read_b read_data[6] bitcell 
XU6 write_data[7] write_data_b[7] write read read_b read_data[7] bitcell 
XU7 write_data[8] write_data_b[8] write read read_b read_data[8] bitcell 
XU8 write_data[9] write_data_b[9] write read read_b read_data[9] bitcell 
XU9 write_data[10] write_data_b[10] write read read_b read_data[10] bitcell 
XU10 write_data[11] write_data_b[11] write read read_b read_data[11] bitcell 
XU11 write_data[12] write_data_b[12] write read read_b read_data[12] bitcell 
XU12 write_data[13] write_data_b[13] write read read_b read_data[13] bitcell 
XU13 write_data[14] write_data_b[14] write read read_b read_data[14] bitcell 
XU14 write_data[15] write_data_b[15] write read read_b read_data[15] bitcell 
.ENDS

.SUBCKT word_34 write read read_b write_data[15] write_data[14] write_data[13] 
+ write_data[12] write_data[11] write_data[10] write_data[9] write_data[8] 
+ write_data[7] write_data[6] write_data[5] write_data[4] write_data[3] 
+ write_data[2] write_data[1] write_data[0] write_data_b[15] write_data_b[14] 
+ write_data_b[13] write_data_b[12] write_data_b[11] write_data_b[10] 
+ write_data_b[9] write_data_b[8] write_data_b[7] write_data_b[6] 
+ write_data_b[5] write_data_b[4] write_data_b[3] write_data_b[2] 
+ write_data_b[1] write_data_b[0] read_data[15] read_data[14] read_data[13] 
+ read_data[12] read_data[11] read_data[10] read_data[9] read_data[8] 
+ read_data[7] read_data[6] read_data[5] read_data[4] read_data[3] read_data[2] 
+ read_data[1] read_data[0] 
XU write_data[0] write_data_b[0] write read read_b read_data[0] bitcell 
XU0 write_data[1] write_data_b[1] write read read_b read_data[1] bitcell 
XU1 write_data[2] write_data_b[2] write read read_b read_data[2] bitcell 
XU2 write_data[3] write_data_b[3] write read read_b read_data[3] bitcell 
XU3 write_data[4] write_data_b[4] write read read_b read_data[4] bitcell 
XU4 write_data[5] write_data_b[5] write read read_b read_data[5] bitcell 
XU5 write_data[6] write_data_b[6] write read read_b read_data[6] bitcell 
XU6 write_data[7] write_data_b[7] write read read_b read_data[7] bitcell 
XU7 write_data[8] write_data_b[8] write read read_b read_data[8] bitcell 
XU8 write_data[9] write_data_b[9] write read read_b read_data[9] bitcell 
XU9 write_data[10] write_data_b[10] write read read_b read_data[10] bitcell 
XU10 write_data[11] write_data_b[11] write read read_b read_data[11] bitcell 
XU11 write_data[12] write_data_b[12] write read read_b read_data[12] bitcell 
XU12 write_data[13] write_data_b[13] write read read_b read_data[13] bitcell 
XU13 write_data[14] write_data_b[14] write read read_b read_data[14] bitcell 
XU14 write_data[15] write_data_b[15] write read read_b read_data[15] bitcell 
.ENDS

.SUBCKT word_35 write read read_b write_data[15] write_data[14] write_data[13] 
+ write_data[12] write_data[11] write_data[10] write_data[9] write_data[8] 
+ write_data[7] write_data[6] write_data[5] write_data[4] write_data[3] 
+ write_data[2] write_data[1] write_data[0] write_data_b[15] write_data_b[14] 
+ write_data_b[13] write_data_b[12] write_data_b[11] write_data_b[10] 
+ write_data_b[9] write_data_b[8] write_data_b[7] write_data_b[6] 
+ write_data_b[5] write_data_b[4] write_data_b[3] write_data_b[2] 
+ write_data_b[1] write_data_b[0] read_data[15] read_data[14] read_data[13] 
+ read_data[12] read_data[11] read_data[10] read_data[9] read_data[8] 
+ read_data[7] read_data[6] read_data[5] read_data[4] read_data[3] read_data[2] 
+ read_data[1] read_data[0] 
XU write_data[0] write_data_b[0] write read read_b read_data[0] bitcell 
XU0 write_data[1] write_data_b[1] write read read_b read_data[1] bitcell 
XU1 write_data[2] write_data_b[2] write read read_b read_data[2] bitcell 
XU2 write_data[3] write_data_b[3] write read read_b read_data[3] bitcell 
XU3 write_data[4] write_data_b[4] write read read_b read_data[4] bitcell 
XU4 write_data[5] write_data_b[5] write read read_b read_data[5] bitcell 
XU5 write_data[6] write_data_b[6] write read read_b read_data[6] bitcell 
XU6 write_data[7] write_data_b[7] write read read_b read_data[7] bitcell 
XU7 write_data[8] write_data_b[8] write read read_b read_data[8] bitcell 
XU8 write_data[9] write_data_b[9] write read read_b read_data[9] bitcell 
XU9 write_data[10] write_data_b[10] write read read_b read_data[10] bitcell 
XU10 write_data[11] write_data_b[11] write read read_b read_data[11] bitcell 
XU11 write_data[12] write_data_b[12] write read read_b read_data[12] bitcell 
XU12 write_data[13] write_data_b[13] write read read_b read_data[13] bitcell 
XU13 write_data[14] write_data_b[14] write read read_b read_data[14] bitcell 
XU14 write_data[15] write_data_b[15] write read read_b read_data[15] bitcell 
.ENDS

.SUBCKT word_36 write read read_b write_data[15] write_data[14] write_data[13] 
+ write_data[12] write_data[11] write_data[10] write_data[9] write_data[8] 
+ write_data[7] write_data[6] write_data[5] write_data[4] write_data[3] 
+ write_data[2] write_data[1] write_data[0] write_data_b[15] write_data_b[14] 
+ write_data_b[13] write_data_b[12] write_data_b[11] write_data_b[10] 
+ write_data_b[9] write_data_b[8] write_data_b[7] write_data_b[6] 
+ write_data_b[5] write_data_b[4] write_data_b[3] write_data_b[2] 
+ write_data_b[1] write_data_b[0] read_data[15] read_data[14] read_data[13] 
+ read_data[12] read_data[11] read_data[10] read_data[9] read_data[8] 
+ read_data[7] read_data[6] read_data[5] read_data[4] read_data[3] read_data[2] 
+ read_data[1] read_data[0] 
XU write_data[0] write_data_b[0] write read read_b read_data[0] bitcell 
XU0 write_data[1] write_data_b[1] write read read_b read_data[1] bitcell 
XU1 write_data[2] write_data_b[2] write read read_b read_data[2] bitcell 
XU2 write_data[3] write_data_b[3] write read read_b read_data[3] bitcell 
XU3 write_data[4] write_data_b[4] write read read_b read_data[4] bitcell 
XU4 write_data[5] write_data_b[5] write read read_b read_data[5] bitcell 
XU5 write_data[6] write_data_b[6] write read read_b read_data[6] bitcell 
XU6 write_data[7] write_data_b[7] write read read_b read_data[7] bitcell 
XU7 write_data[8] write_data_b[8] write read read_b read_data[8] bitcell 
XU8 write_data[9] write_data_b[9] write read read_b read_data[9] bitcell 
XU9 write_data[10] write_data_b[10] write read read_b read_data[10] bitcell 
XU10 write_data[11] write_data_b[11] write read read_b read_data[11] bitcell 
XU11 write_data[12] write_data_b[12] write read read_b read_data[12] bitcell 
XU12 write_data[13] write_data_b[13] write read read_b read_data[13] bitcell 
XU13 write_data[14] write_data_b[14] write read read_b read_data[14] bitcell 
XU14 write_data[15] write_data_b[15] write read read_b read_data[15] bitcell 
.ENDS

.SUBCKT word_37 write read read_b write_data[15] write_data[14] write_data[13] 
+ write_data[12] write_data[11] write_data[10] write_data[9] write_data[8] 
+ write_data[7] write_data[6] write_data[5] write_data[4] write_data[3] 
+ write_data[2] write_data[1] write_data[0] write_data_b[15] write_data_b[14] 
+ write_data_b[13] write_data_b[12] write_data_b[11] write_data_b[10] 
+ write_data_b[9] write_data_b[8] write_data_b[7] write_data_b[6] 
+ write_data_b[5] write_data_b[4] write_data_b[3] write_data_b[2] 
+ write_data_b[1] write_data_b[0] read_data[15] read_data[14] read_data[13] 
+ read_data[12] read_data[11] read_data[10] read_data[9] read_data[8] 
+ read_data[7] read_data[6] read_data[5] read_data[4] read_data[3] read_data[2] 
+ read_data[1] read_data[0] 
XU write_data[0] write_data_b[0] write read read_b read_data[0] bitcell 
XU0 write_data[1] write_data_b[1] write read read_b read_data[1] bitcell 
XU1 write_data[2] write_data_b[2] write read read_b read_data[2] bitcell 
XU2 write_data[3] write_data_b[3] write read read_b read_data[3] bitcell 
XU3 write_data[4] write_data_b[4] write read read_b read_data[4] bitcell 
XU4 write_data[5] write_data_b[5] write read read_b read_data[5] bitcell 
XU5 write_data[6] write_data_b[6] write read read_b read_data[6] bitcell 
XU6 write_data[7] write_data_b[7] write read read_b read_data[7] bitcell 
XU7 write_data[8] write_data_b[8] write read read_b read_data[8] bitcell 
XU8 write_data[9] write_data_b[9] write read read_b read_data[9] bitcell 
XU9 write_data[10] write_data_b[10] write read read_b read_data[10] bitcell 
XU10 write_data[11] write_data_b[11] write read read_b read_data[11] bitcell 
XU11 write_data[12] write_data_b[12] write read read_b read_data[12] bitcell 
XU12 write_data[13] write_data_b[13] write read read_b read_data[13] bitcell 
XU13 write_data[14] write_data_b[14] write read read_b read_data[14] bitcell 
XU14 write_data[15] write_data_b[15] write read read_b read_data[15] bitcell 
.ENDS

.SUBCKT word_38 write read read_b write_data[15] write_data[14] write_data[13] 
+ write_data[12] write_data[11] write_data[10] write_data[9] write_data[8] 
+ write_data[7] write_data[6] write_data[5] write_data[4] write_data[3] 
+ write_data[2] write_data[1] write_data[0] write_data_b[15] write_data_b[14] 
+ write_data_b[13] write_data_b[12] write_data_b[11] write_data_b[10] 
+ write_data_b[9] write_data_b[8] write_data_b[7] write_data_b[6] 
+ write_data_b[5] write_data_b[4] write_data_b[3] write_data_b[2] 
+ write_data_b[1] write_data_b[0] read_data[15] read_data[14] read_data[13] 
+ read_data[12] read_data[11] read_data[10] read_data[9] read_data[8] 
+ read_data[7] read_data[6] read_data[5] read_data[4] read_data[3] read_data[2] 
+ read_data[1] read_data[0] 
XU write_data[0] write_data_b[0] write read read_b read_data[0] bitcell 
XU0 write_data[1] write_data_b[1] write read read_b read_data[1] bitcell 
XU1 write_data[2] write_data_b[2] write read read_b read_data[2] bitcell 
XU2 write_data[3] write_data_b[3] write read read_b read_data[3] bitcell 
XU3 write_data[4] write_data_b[4] write read read_b read_data[4] bitcell 
XU4 write_data[5] write_data_b[5] write read read_b read_data[5] bitcell 
XU5 write_data[6] write_data_b[6] write read read_b read_data[6] bitcell 
XU6 write_data[7] write_data_b[7] write read read_b read_data[7] bitcell 
XU7 write_data[8] write_data_b[8] write read read_b read_data[8] bitcell 
XU8 write_data[9] write_data_b[9] write read read_b read_data[9] bitcell 
XU9 write_data[10] write_data_b[10] write read read_b read_data[10] bitcell 
XU10 write_data[11] write_data_b[11] write read read_b read_data[11] bitcell 
XU11 write_data[12] write_data_b[12] write read read_b read_data[12] bitcell 
XU12 write_data[13] write_data_b[13] write read read_b read_data[13] bitcell 
XU13 write_data[14] write_data_b[14] write read read_b read_data[14] bitcell 
XU14 write_data[15] write_data_b[15] write read read_b read_data[15] bitcell 
.ENDS

.SUBCKT word_39 write read read_b write_data[15] write_data[14] write_data[13] 
+ write_data[12] write_data[11] write_data[10] write_data[9] write_data[8] 
+ write_data[7] write_data[6] write_data[5] write_data[4] write_data[3] 
+ write_data[2] write_data[1] write_data[0] write_data_b[15] write_data_b[14] 
+ write_data_b[13] write_data_b[12] write_data_b[11] write_data_b[10] 
+ write_data_b[9] write_data_b[8] write_data_b[7] write_data_b[6] 
+ write_data_b[5] write_data_b[4] write_data_b[3] write_data_b[2] 
+ write_data_b[1] write_data_b[0] read_data[15] read_data[14] read_data[13] 
+ read_data[12] read_data[11] read_data[10] read_data[9] read_data[8] 
+ read_data[7] read_data[6] read_data[5] read_data[4] read_data[3] read_data[2] 
+ read_data[1] read_data[0] 
XU write_data[0] write_data_b[0] write read read_b read_data[0] bitcell 
XU0 write_data[1] write_data_b[1] write read read_b read_data[1] bitcell 
XU1 write_data[2] write_data_b[2] write read read_b read_data[2] bitcell 
XU2 write_data[3] write_data_b[3] write read read_b read_data[3] bitcell 
XU3 write_data[4] write_data_b[4] write read read_b read_data[4] bitcell 
XU4 write_data[5] write_data_b[5] write read read_b read_data[5] bitcell 
XU5 write_data[6] write_data_b[6] write read read_b read_data[6] bitcell 
XU6 write_data[7] write_data_b[7] write read read_b read_data[7] bitcell 
XU7 write_data[8] write_data_b[8] write read read_b read_data[8] bitcell 
XU8 write_data[9] write_data_b[9] write read read_b read_data[9] bitcell 
XU9 write_data[10] write_data_b[10] write read read_b read_data[10] bitcell 
XU10 write_data[11] write_data_b[11] write read read_b read_data[11] bitcell 
XU11 write_data[12] write_data_b[12] write read read_b read_data[12] bitcell 
XU12 write_data[13] write_data_b[13] write read read_b read_data[13] bitcell 
XU13 write_data[14] write_data_b[14] write read read_b read_data[14] bitcell 
XU14 write_data[15] write_data_b[15] write read read_b read_data[15] bitcell 
.ENDS

.SUBCKT word_40 write read read_b write_data[15] write_data[14] write_data[13] 
+ write_data[12] write_data[11] write_data[10] write_data[9] write_data[8] 
+ write_data[7] write_data[6] write_data[5] write_data[4] write_data[3] 
+ write_data[2] write_data[1] write_data[0] write_data_b[15] write_data_b[14] 
+ write_data_b[13] write_data_b[12] write_data_b[11] write_data_b[10] 
+ write_data_b[9] write_data_b[8] write_data_b[7] write_data_b[6] 
+ write_data_b[5] write_data_b[4] write_data_b[3] write_data_b[2] 
+ write_data_b[1] write_data_b[0] read_data[15] read_data[14] read_data[13] 
+ read_data[12] read_data[11] read_data[10] read_data[9] read_data[8] 
+ read_data[7] read_data[6] read_data[5] read_data[4] read_data[3] read_data[2] 
+ read_data[1] read_data[0] 
XU write_data[0] write_data_b[0] write read read_b read_data[0] bitcell 
XU0 write_data[1] write_data_b[1] write read read_b read_data[1] bitcell 
XU1 write_data[2] write_data_b[2] write read read_b read_data[2] bitcell 
XU2 write_data[3] write_data_b[3] write read read_b read_data[3] bitcell 
XU3 write_data[4] write_data_b[4] write read read_b read_data[4] bitcell 
XU4 write_data[5] write_data_b[5] write read read_b read_data[5] bitcell 
XU5 write_data[6] write_data_b[6] write read read_b read_data[6] bitcell 
XU6 write_data[7] write_data_b[7] write read read_b read_data[7] bitcell 
XU7 write_data[8] write_data_b[8] write read read_b read_data[8] bitcell 
XU8 write_data[9] write_data_b[9] write read read_b read_data[9] bitcell 
XU9 write_data[10] write_data_b[10] write read read_b read_data[10] bitcell 
XU10 write_data[11] write_data_b[11] write read read_b read_data[11] bitcell 
XU11 write_data[12] write_data_b[12] write read read_b read_data[12] bitcell 
XU12 write_data[13] write_data_b[13] write read read_b read_data[13] bitcell 
XU13 write_data[14] write_data_b[14] write read read_b read_data[14] bitcell 
XU14 write_data[15] write_data_b[15] write read read_b read_data[15] bitcell 
.ENDS

.SUBCKT word_41 write read read_b write_data[15] write_data[14] write_data[13] 
+ write_data[12] write_data[11] write_data[10] write_data[9] write_data[8] 
+ write_data[7] write_data[6] write_data[5] write_data[4] write_data[3] 
+ write_data[2] write_data[1] write_data[0] write_data_b[15] write_data_b[14] 
+ write_data_b[13] write_data_b[12] write_data_b[11] write_data_b[10] 
+ write_data_b[9] write_data_b[8] write_data_b[7] write_data_b[6] 
+ write_data_b[5] write_data_b[4] write_data_b[3] write_data_b[2] 
+ write_data_b[1] write_data_b[0] read_data[15] read_data[14] read_data[13] 
+ read_data[12] read_data[11] read_data[10] read_data[9] read_data[8] 
+ read_data[7] read_data[6] read_data[5] read_data[4] read_data[3] read_data[2] 
+ read_data[1] read_data[0] 
XU write_data[0] write_data_b[0] write read read_b read_data[0] bitcell 
XU0 write_data[1] write_data_b[1] write read read_b read_data[1] bitcell 
XU1 write_data[2] write_data_b[2] write read read_b read_data[2] bitcell 
XU2 write_data[3] write_data_b[3] write read read_b read_data[3] bitcell 
XU3 write_data[4] write_data_b[4] write read read_b read_data[4] bitcell 
XU4 write_data[5] write_data_b[5] write read read_b read_data[5] bitcell 
XU5 write_data[6] write_data_b[6] write read read_b read_data[6] bitcell 
XU6 write_data[7] write_data_b[7] write read read_b read_data[7] bitcell 
XU7 write_data[8] write_data_b[8] write read read_b read_data[8] bitcell 
XU8 write_data[9] write_data_b[9] write read read_b read_data[9] bitcell 
XU9 write_data[10] write_data_b[10] write read read_b read_data[10] bitcell 
XU10 write_data[11] write_data_b[11] write read read_b read_data[11] bitcell 
XU11 write_data[12] write_data_b[12] write read read_b read_data[12] bitcell 
XU12 write_data[13] write_data_b[13] write read read_b read_data[13] bitcell 
XU13 write_data[14] write_data_b[14] write read read_b read_data[14] bitcell 
XU14 write_data[15] write_data_b[15] write read read_b read_data[15] bitcell 
.ENDS
